                                  MODFLOW-2005     
      U.S. GEOLOGICAL SURVEY MODULAR FINITE-DIFFERENCE GROUND-WATER FLOW MODEL
                            VERSION 1.12.00 2/3/2017

 LIST FILE: BoxModel_flopy.list
                         UNIT    2

 OPENING BoxModel_flopy.dis
 FILE TYPE:DIS   UNIT   11   STATUS:OLD    
 FORMAT:FORMATTED              ACCESS:SEQUENTIAL          

 OPENING BoxModel_flopy.bas
 FILE TYPE:BAS6   UNIT   13   STATUS:OLD    
 FORMAT:FORMATTED              ACCESS:SEQUENTIAL          

 OPENING BoxModel_flopy.bcf
 FILE TYPE:BCF6   UNIT   15   STATUS:OLD    
 FORMAT:FORMATTED              ACCESS:SEQUENTIAL          

 OPENING BoxModel_flopy.oc
 FILE TYPE:OC   UNIT   14   STATUS:OLD    
 FORMAT:FORMATTED              ACCESS:SEQUENTIAL          

 OPENING BoxModel_flopy.pcg
 FILE TYPE:PCG   UNIT   27   STATUS:OLD    
 FORMAT:FORMATTED              ACCESS:SEQUENTIAL          

 OPENING BoxModel_flopy.rch
 FILE TYPE:RCH   UNIT   19   STATUS:OLD    
 FORMAT:FORMATTED              ACCESS:SEQUENTIAL          

 OPENING BoxModel_flopy.wel
 FILE TYPE:WEL   UNIT   20   STATUS:OLD    
 FORMAT:FORMATTED              ACCESS:SEQUENTIAL          

 OPENING BoxModel_flopy.cbc
 FILE TYPE:DATA(BINARY)   UNIT   53   STATUS:REPLACE
 FORMAT:UNFORMATTED            ACCESS:STREAM              

 OPENING BoxModel_flopy.hds
 FILE TYPE:DATA(BINARY)   UNIT   51   STATUS:REPLACE
 FORMAT:UNFORMATTED            ACCESS:STREAM              

 BAS -- BASIC PACKAGE, VERSION 7, 5/2/2005 INPUT READ FROM UNIT   13
 
 MODFLOW was compiled using mixed precision
 Precision of REAL variables:           6
 Precision of DOUBLE PRECISION variables:          15

 DISCRETIZATION INPUT DATA READ FROM UNIT   11
 # DIS package for MODFLOW-2005 generated by Flopy 3.9.5
    1 LAYERS        60 ROWS        60 COLUMNS
    1 STRESS PERIOD(S) IN SIMULATION
 MODEL TIME UNIT IS DAYS
 MODEL LENGTH UNIT IS METERS
  Confining bed flag for each layer:
   0

                     DELR =   50.0000    

                     DELC =   50.0000    

 TOP ELEVATION OF LAYER 1 =   200.000    

   MODEL LAYER BOTTOM EL. =  -200.000     FOR LAYER   1


 STRESS PERIOD     LENGTH       TIME STEPS     MULTIPLIER FOR DELT    SS FLAG
 ----------------------------------------------------------------------------
        1         1.000000          1                    1.000         SS

 STEADY-STATE SIMULATION



 
 # BAS6 package for MODFLOW-2005 generated by Flopy 3.9.5                        
 THE FREE FORMAT OPTION HAS BEEN SELECTED



                     BOUNDARY ARRAY FOR LAYER   1
 READING ON UNIT   13 WITH FORMAT: (60I10)             

 AQUIFER HEAD WILL BE SET TO  -999.99     AT ALL NO-FLOW NODES (IBOUND=0).



                       INITIAL HEAD FOR LAYER   1
 READING ON UNIT   13 WITH FORMAT: (60E15.6)           
 # OC package for MODFLOW-2005 generated by Flopy 3.9.5

 OUTPUT CONTROL IS SPECIFIED ONLY AT TIME STEPS FOR WHICH OUTPUT IS DESIRED
 COMPACT CELL-BY-CELL BUDGET FILES WILL BE WRITTEN
 AUXILIARY DATA WILL BE SAVED IN CELL-BY-CELL BUDGET FILES
 HEAD PRINT FORMAT CODE IS   0    DRAWDOWN PRINT FORMAT CODE IS   0
 HEADS WILL BE SAVED ON UNIT   51    DRAWDOWNS WILL BE SAVED ON UNIT    0

 BCF -- BLOCK-CENTERED FLOW PACKAGE, VERSION 7, 5/2/2005
         INPUT READ FROM UNIT 15
 STEADY-STATE SIMULATION
 CELL-BY-CELL FLOWS WILL BE SAVED ON UNIT 53
 HEAD AT CELLS THAT CONVERT TO DRY= -0.10000E+31
 WETTING CAPABILITY IS NOT ACTIVE
      LAYER  LAYER-TYPE CODE     INTERBLOCK T
      --------------------------------------------
         1            3          0 -- HARMONIC    

 COLUMN TO ROW ANISOTROPY =   1.00000    



              HYD. COND. ALONG ROWS FOR LAYER   1
 READING ON UNIT   15 WITH FORMAT: (60E15.6)           

 WEL -- WELL PACKAGE, VERSION 7, 5/2/2005 INPUT READ FROM UNIT   20
 # WEL package for MODFLOW-2005 generated by Flopy 3.9.5
 No named parameters
 MAXIMUM OF      1 ACTIVE WELLS AT ONE TIME


     0 Well parameters

 RCH -- RECHARGE PACKAGE, VERSION 7, 5/2/2005 INPUT READ FROM UNIT   19
 # RCH package for MODFLOW-2005 generated by Flopy 3.9.5
 No named parameters
 OPTION 3 -- RECHARGE TO HIGHEST ACTIVE NODE IN EACH VERTICAL COLUMN
 CELL-BY-CELL FLOWS WILL BE SAVED ON UNIT   53


     0 Recharge parameters

 PCG -- CONJUGATE-GRADIENT SOLUTION PACKAGE, VERSION 7, 5/2/2005
 # PCG package for MODFLOW-2005 generated by Flopy 3.9.5
 MAXIMUM OF     50 CALLS OF SOLUTION ROUTINE
 MAXIMUM OF     30 INTERNAL ITERATIONS PER CALL TO SOLUTION ROUTINE
 MATRIX PRECONDITIONING TYPE :    1



                                    SOLUTION BY THE CONJUGATE-GRADIENT METHOD
                                   -------------------------------------------
                    MAXIMUM NUMBER OF CALLS TO PCG ROUTINE =       50
                        MAXIMUM ITERATIONS PER CALL TO PCG =       30
                               MATRIX PRECONDITIONING TYPE =        1
        RELAXATION FACTOR (ONLY USED WITH PRECOND. TYPE 1) =    0.10000E+01
 PARAMETER OF POLYNOMIAL PRECOND. = 2 (2) OR IS CALCULATED :        0
                         HEAD CHANGE CRITERION FOR CLOSURE =    0.10000E-04
                     RESIDUAL CHANGE CRITERION FOR CLOSURE =    0.10000E-04
            PCG HEAD AND RESIDUAL CHANGE PRINTOUT INTERVAL =      999
     PRINTING FROM SOLVER IS LIMITED(1) OR SUPPRESSED (>1) =        3
                            STEADY-STATE DAMPING PARAMETER =    0.10000E+01
                               TRANSIENT DAMPING PARAMETER =    0.10000E+01
1
                            STRESS PERIOD NO.    1, LENGTH =   1.000000    
                            -----------------------------------------------

                              NUMBER OF TIME STEPS =     1

                               MULTIPLIER FOR DELT =     1.000

                            INITIAL TIME STEP SIZE =   1.000000    

 WELL NO.  LAYER   ROW   COL   STRESS RATE         
 --------------------------------------------------
      1      1     23      9      -827.3    

      1 WELL 



                           RECHARGE
 READING ON UNIT   19 WITH FORMAT: (60E15.6)           
 
 SOLVING FOR HEAD 

 OUTPUT CONTROL FOR STRESS PERIOD    1   TIME STEP    1
    PRINT HEAD FOR ALL LAYERS
    PRINT BUDGET
    SAVE HEAD FOR ALL LAYERS
    SAVE BUDGET
 UBDSV2 SAVING "   CONSTANT HEAD" ON UNIT  53 AT TIME STEP  1, STRESS PERIOD   1
 UBDSV1 SAVING "FLOW RIGHT FACE " ON UNIT  53 AT TIME STEP  1, STRESS PERIOD   1
 UBDSV1 SAVING "FLOW FRONT FACE " ON UNIT  53 AT TIME STEP  1, STRESS PERIOD   1
 UBDSV3 SAVING "        RECHARGE" ON UNIT  53 AT TIME STEP  1, STRESS PERIOD   1
1
              HEAD IN LAYER   1 AT END OF TIME STEP   1 IN STRESS PERIOD    1
  ---------------------------------------------------------------------------

            1           2           3           4           5           6           7           8           9          10
           11          12          13          14          15          16          17          18          19          20
           21          22          23          24          25          26          27          28          29          30
           31          32          33          34          35          36          37          38          39          40
           41          42          43          44          45          46          47          48          49          50
           51          52          53          54          55          56          57          58          59          60
 ........................................................................................................................
   1    394.9       394.1       393.3       392.6       391.8       391.0       390.2       389.5       388.7       387.9    
        387.1       386.4       385.6       384.8       384.0       383.3       382.5       381.7       380.9       380.2    
        379.4       378.6       377.8       377.0       376.3       375.5       374.7       373.9       373.2       372.4    
        371.6       370.8       370.1       369.3       368.5       367.7       367.0       366.2       365.4       364.6    
        363.9       363.1       362.3       361.5       360.8       360.0       359.2       358.4       357.6       356.9    
        356.1       355.3       354.5       353.8       353.0       352.2       351.4       350.7       349.9       349.1    
   2    394.9       394.1       393.3       392.6       391.8       391.0       390.2       389.5       388.7       387.9    
        387.1       386.4       385.6       384.8       384.0       383.3       382.5       381.7       380.9       380.2    
        379.4       378.6       377.8       377.0       376.3       375.5       374.7       373.9       373.2       372.4    
        371.6       370.8       370.1       369.3       368.5       367.7       367.0       366.2       365.4       364.6    
        363.9       363.1       362.3       361.5       360.8       360.0       359.2       358.4       357.6       356.9    
        356.1       355.3       354.5       353.8       353.0       352.2       351.4       350.7       349.9       349.1    
   3    394.9       394.1       393.3       392.6       391.8       391.0       390.2       389.5       388.7       387.9    
        387.1       386.4       385.6       384.8       384.0       383.3       382.5       381.7       380.9       380.2    
        379.4       378.6       377.8       377.0       376.3       375.5       374.7       373.9       373.2       372.4    
        371.6       370.8       370.1       369.3       368.5       367.7       367.0       366.2       365.4       364.6    
        363.9       363.1       362.3       361.5       360.8       360.0       359.2       358.4       357.6       356.9    
        356.1       355.3       354.5       353.8       353.0       352.2       351.4       350.7       349.9       349.1    
   4    394.9       394.1       393.3       392.6       391.8       391.0       390.2       389.5       388.7       387.9    
        387.1       386.4       385.6       384.8       384.0       383.3       382.5       381.7       380.9       380.2    
        379.4       378.6       377.8       377.0       376.3       375.5       374.7       373.9       373.2       372.4    
        371.6       370.8       370.1       369.3       368.5       367.7       367.0       366.2       365.4       364.6    
        363.9       363.1       362.3       361.5       360.8       360.0       359.2       358.4       357.6       356.9    
        356.1       355.3       354.5       353.8       353.0       352.2       351.4       350.7       349.9       349.1    
   5    394.9       394.1       393.3       392.6       391.8       391.0       390.2       389.5       388.7       387.9    
        387.1       386.4       385.6       384.8       384.0       383.3       382.5       381.7       380.9       380.1    
        379.4       378.6       377.8       377.0       376.3       375.5       374.7       373.9       373.2       372.4    
        371.6       370.8       370.1       369.3       368.5       367.7       367.0       366.2       365.4       364.6    
        363.9       363.1       362.3       361.5       360.8       360.0       359.2       358.4       357.6       356.9    
        356.1       355.3       354.5       353.8       353.0       352.2       351.4       350.7       349.9       349.1    
   6    394.9       394.1       393.3       392.6       391.8       391.0       390.2       389.5       388.7       387.9    
        387.1       386.4       385.6       384.8       384.0       383.3       382.5       381.7       380.9       380.1    
        379.4       378.6       377.8       377.0       376.3       375.5       374.7       373.9       373.2       372.4    
        371.6       370.8       370.1       369.3       368.5       367.7       367.0       366.2       365.4       364.6    
        363.9       363.1       362.3       361.5       360.8       360.0       359.2       358.4       357.6       356.9    
        356.1       355.3       354.5       353.8       353.0       352.2       351.4       350.7       349.9       349.1    
   7    394.9       394.1       393.3       392.6       391.8       391.0       390.2       389.5       388.7       387.9    
        387.1       386.4       385.6       384.8       384.0       383.3       382.5       381.7       380.9       380.1    
        379.4       378.6       377.8       377.0       376.3       375.5       374.7       373.9       373.2       372.4    
        371.6       370.8       370.1       369.3       368.5       367.7       367.0       366.2       365.4       364.6    
        363.9       363.1       362.3       361.5       360.8       360.0       359.2       358.4       357.6       356.9    
        356.1       355.3       354.5       353.8       353.0       352.2       351.4       350.7       349.9       349.1    
   8    394.9       394.1       393.3       392.6       391.8       391.0       390.2       389.5       388.7       387.9    
        387.1       386.4       385.6       384.8       384.0       383.2       382.5       381.7       380.9       380.1    
        379.4       378.6       377.8       377.0       376.3       375.5       374.7       373.9       373.2       372.4    
        371.6       370.8       370.1       369.3       368.5       367.7       367.0       366.2       365.4       364.6    
        363.9       363.1       362.3       361.5       360.8       360.0       359.2       358.4       357.6       356.9    
        356.1       355.3       354.5       353.8       353.0       352.2       351.4       350.7       349.9       349.1    
   9    394.9       394.1       393.3       392.6       391.8       391.0       390.2       389.5       388.7       387.9    
        387.1       386.4       385.6       384.8       384.0       383.2       382.5       381.7       380.9       380.1    
        379.4       378.6       377.8       377.0       376.3       375.5       374.7       373.9       373.2       372.4    
        371.6       370.8       370.1       369.3       368.5       367.7       367.0       366.2       365.4       364.6    
        363.9       363.1       362.3       361.5       360.8       360.0       359.2       358.4       357.6       356.9    
        356.1       355.3       354.5       353.8       353.0       352.2       351.4       350.7       349.9       349.1    
  10    394.9       394.1       393.3       392.6       391.8       391.0       390.2       389.5       388.7       387.9    
        387.1       386.3       385.6       384.8       384.0       383.2       382.5       381.7       380.9       380.1    
        379.4       378.6       377.8       377.0       376.3       375.5       374.7       373.9       373.2       372.4    
        371.6       370.8       370.1       369.3       368.5       367.7       367.0       366.2       365.4       364.6    
        363.9       363.1       362.3       361.5       360.8       360.0       359.2       358.4       357.6       356.9    
        356.1       355.3       354.5       353.8       353.0       352.2       351.4       350.7       349.9       349.1    
  11    394.9       394.1       393.3       392.6       391.8       391.0       390.2       389.5       388.7       387.9    
        387.1       386.3       385.6       384.8       384.0       383.2       382.5       381.7       380.9       380.1    
        379.4       378.6       377.8       377.0       376.3       375.5       374.7       373.9       373.2       372.4    
        371.6       370.8       370.1       369.3       368.5       367.7       367.0       366.2       365.4       364.6    
        363.9       363.1       362.3       361.5       360.8       360.0       359.2       358.4       357.6       356.9    
        356.1       355.3       354.5       353.8       353.0       352.2       351.4       350.7       349.9       349.1    
  12    394.9       394.1       393.3       392.6       391.8       391.0       390.2       389.5       388.7       387.9    
        387.1       386.3       385.6       384.8       384.0       383.2       382.5       381.7       380.9       380.1    
        379.4       378.6       377.8       377.0       376.3       375.5       374.7       373.9       373.2       372.4    
        371.6       370.8       370.1       369.3       368.5       367.7       367.0       366.2       365.4       364.6    
        363.9       363.1       362.3       361.5       360.8       360.0       359.2       358.4       357.6       356.9    
        356.1       355.3       354.5       353.8       353.0       352.2       351.4       350.7       349.9       349.1    
  13    394.9       394.1       393.3       392.6       391.8       391.0       390.2       389.4       388.7       387.9    
        387.1       386.3       385.6       384.8       384.0       383.2       382.5       381.7       380.9       380.1    
        379.4       378.6       377.8       377.0       376.3       375.5       374.7       373.9       373.2       372.4    
        371.6       370.8       370.1       369.3       368.5       367.7       367.0       366.2       365.4       364.6    
        363.9       363.1       362.3       361.5       360.8       360.0       359.2       358.4       357.6       356.9    
        356.1       355.3       354.5       353.8       353.0       352.2       351.4       350.7       349.9       349.1    
  14    394.9       394.1       393.3       392.6       391.8       391.0       390.2       389.4       388.7       387.9    
        387.1       386.3       385.6       384.8       384.0       383.2       382.5       381.7       380.9       380.1    
        379.4       378.6       377.8       377.0       376.3       375.5       374.7       373.9       373.2       372.4    
        371.6       370.8       370.1       369.3       368.5       367.7       367.0       366.2       365.4       364.6    
        363.9       363.1       362.3       361.5       360.8       360.0       359.2       358.4       357.6       356.9    
        356.1       355.3       354.5       353.8       353.0       352.2       351.4       350.7       349.9       349.1    
  15    394.9       394.1       393.3       392.6       391.8       391.0       390.2       389.4       388.7       387.9    
        387.1       386.3       385.6       384.8       384.0       383.2       382.5       381.7       380.9       380.1    
        379.4       378.6       377.8       377.0       376.3       375.5       374.7       373.9       373.2       372.4    
        371.6       370.8       370.1       369.3       368.5       367.7       367.0       366.2       365.4       364.6    
        363.9       363.1       362.3       361.5       360.8       360.0       359.2       358.4       357.6       356.9    
        356.1       355.3       354.5       353.8       353.0       352.2       351.4       350.7       349.9       349.1    
  16    394.9       394.1       393.3       392.6       391.8       391.0       390.2       389.4       388.7       387.9    
        387.1       386.3       385.6       384.8       384.0       383.2       382.5       381.7       380.9       380.1    
        379.4       378.6       377.8       377.0       376.3       375.5       374.7       373.9       373.2       372.4    
        371.6       370.8       370.1       369.3       368.5       367.7       367.0       366.2       365.4       364.6    
        363.9       363.1       362.3       361.5       360.8       360.0       359.2       358.4       357.6       356.9    
        356.1       355.3       354.5       353.8       353.0       352.2       351.4       350.7       349.9       349.1    
  17    394.9       394.1       393.3       392.6       391.8       391.0       390.2       389.4       388.7       387.9    
        387.1       386.3       385.5       384.8       384.0       383.2       382.5       381.7       380.9       380.1    
        379.4       378.6       377.8       377.0       376.3       375.5       374.7       373.9       373.2       372.4    
        371.6       370.8       370.1       369.3       368.5       367.7       367.0       366.2       365.4       364.6    
        363.9       363.1       362.3       361.5       360.8       360.0       359.2       358.4       357.6       356.9    
        356.1       355.3       354.5       353.8       353.0       352.2       351.4       350.7       349.9       349.1    
  18    394.9       394.1       393.3       392.6       391.8       391.0       390.2       389.4       388.6       387.9    
        387.1       386.3       385.5       384.8       384.0       383.2       382.5       381.7       380.9       380.1    
        379.4       378.6       377.8       377.0       376.3       375.5       374.7       373.9       373.2       372.4    
        371.6       370.8       370.1       369.3       368.5       367.7       367.0       366.2       365.4       364.6    
        363.9       363.1       362.3       361.5       360.8       360.0       359.2       358.4       357.6       356.9    
        356.1       355.3       354.5       353.8       353.0       352.2       351.4       350.7       349.9       349.1    
  19    394.9       394.1       393.3       392.5       391.8       391.0       390.2       389.4       388.6       387.9    
        387.1       386.3       385.5       384.8       384.0       383.2       382.5       381.7       380.9       380.1    
        379.4       378.6       377.8       377.0       376.3       375.5       374.7       373.9       373.2       372.4    
        371.6       370.8       370.1       369.3       368.5       367.7       367.0       366.2       365.4       364.6    
        363.9       363.1       362.3       361.5       360.8       360.0       359.2       358.4       357.6       356.9    
        356.1       355.3       354.5       353.8       353.0       352.2       351.4       350.7       349.9       349.1    
  20    394.9       394.1       393.3       392.5       391.8       391.0       390.2       389.4       388.6       387.8    
        387.1       386.3       385.5       384.8       384.0       383.2       382.4       381.7       380.9       380.1    
        379.4       378.6       377.8       377.0       376.3       375.5       374.7       373.9       373.2       372.4    
        371.6       370.8       370.1       369.3       368.5       367.7       367.0       366.2       365.4       364.6    
        363.9       363.1       362.3       361.5       360.8       360.0       359.2       358.4       357.6       356.9    
        356.1       355.3       354.5       353.8       353.0       352.2       351.4       350.7       349.9       349.1    
  21    394.9       394.1       393.3       392.5       391.8       391.0       390.2       389.4       388.6       387.8    
        387.1       386.3       385.5       384.8       384.0       383.2       382.4       381.7       380.9       380.1    
        379.4       378.6       377.8       377.0       376.3       375.5       374.7       373.9       373.2       372.4    
        371.6       370.8       370.1       369.3       368.5       367.7       367.0       366.2       365.4       364.6    
        363.9       363.1       362.3       361.5       360.8       360.0       359.2       358.4       357.6       356.9    
        356.1       355.3       354.5       353.8       353.0       352.2       351.4       350.7       349.9       349.1    
  22    394.9       394.1       393.3       392.5       391.7       391.0       390.2       389.4       388.6       387.8    
        387.0       386.3       385.5       384.8       384.0       383.2       382.4       381.7       380.9       380.1    
        379.4       378.6       377.8       377.0       376.3       375.5       374.7       373.9       373.2       372.4    
        371.6       370.8       370.1       369.3       368.5       367.7       367.0       366.2       365.4       364.6    
        363.9       363.1       362.3       361.5       360.8       360.0       359.2       358.4       357.6       356.9    
        356.1       355.3       354.5       353.8       353.0       352.2       351.4       350.7       349.9       349.1    
  23    394.9       394.1       393.3       392.5       391.7       391.0       390.2       389.3       388.5       387.8    
        387.0       386.3       385.5       384.8       384.0       383.2       382.4       381.7       380.9       380.1    
        379.4       378.6       377.8       377.0       376.3       375.5       374.7       373.9       373.2       372.4    
        371.6       370.8       370.1       369.3       368.5       367.7       367.0       366.2       365.4       364.6    
        363.9       363.1       362.3       361.5       360.8       360.0       359.2       358.4       357.6       356.9    
        356.1       355.3       354.5       353.8       353.0       352.2       351.4       350.7       349.9       349.1    
  24    394.9       394.1       393.3       392.5       391.7       391.0       390.2       389.4       388.6       387.8    
        387.0       386.3       385.5       384.8       384.0       383.2       382.4       381.7       380.9       380.1    
        379.4       378.6       377.8       377.0       376.3       375.5       374.7       373.9       373.2       372.4    
        371.6       370.8       370.1       369.3       368.5       367.7       367.0       366.2       365.4       364.6    
        363.9       363.1       362.3       361.5       360.8       360.0       359.2       358.4       357.6       356.9    
        356.1       355.3       354.5       353.8       353.0       352.2       351.4       350.7       349.9       349.1    
  25    394.9       394.1       393.3       392.5       391.8       391.0       390.2       389.4       388.6       387.8    
        387.1       386.3       385.5       384.8       384.0       383.2       382.4       381.7       380.9       380.1    
        379.4       378.6       377.8       377.0       376.3       375.5       374.7       373.9       373.2       372.4    
        371.6       370.8       370.1       369.3       368.5       367.7       367.0       366.2       365.4       364.6    
        363.9       363.1       362.3       361.5       360.8       360.0       359.2       358.4       357.6       356.9    
        356.1       355.3       354.5       353.8       353.0       352.2       351.4       350.7       349.9       349.1    
  26    394.9       394.1       393.3       392.5       391.8       391.0       390.2       389.4       388.6       387.8    
        387.1       386.3       385.5       384.8       384.0       383.2       382.4       381.7       380.9       380.1    
        379.4       378.6       377.8       377.0       376.3       375.5       374.7       373.9       373.2       372.4    
        371.6       370.8       370.1       369.3       368.5       367.7       367.0       366.2       365.4       364.6    
        363.9       363.1       362.3       361.5       360.8       360.0       359.2       358.4       357.6       356.9    
        356.1       355.3       354.5       353.8       353.0       352.2       351.4       350.7       349.9       349.1    
  27    394.9       394.1       393.3       392.5       391.8       391.0       390.2       389.4       388.6       387.9    
        387.1       386.3       385.5       384.8       384.0       383.2       382.4       381.7       380.9       380.1    
        379.4       378.6       377.8       377.0       376.3       375.5       374.7       373.9       373.2       372.4    
        371.6       370.8       370.1       369.3       368.5       367.7       367.0       366.2       365.4       364.6    
        363.9       363.1       362.3       361.5       360.8       360.0       359.2       358.4       357.6       356.9    
        356.1       355.3       354.5       353.8       353.0       352.2       351.4       350.7       349.9       349.1    
  28    394.9       394.1       393.3       392.6       391.8       391.0       390.2       389.4       388.6       387.9    
        387.1       386.3       385.5       384.8       384.0       383.2       382.5       381.7       380.9       380.1    
        379.4       378.6       377.8       377.0       376.3       375.5       374.7       373.9       373.2       372.4    
        371.6       370.8       370.1       369.3       368.5       367.7       367.0       366.2       365.4       364.6    
        363.9       363.1       362.3       361.5       360.8       360.0       359.2       358.4       357.6       356.9    
        356.1       355.3       354.5       353.8       353.0       352.2       351.4       350.7       349.9       349.1    
  29    394.9       394.1       393.3       392.6       391.8       391.0       390.2       389.4       388.7       387.9    
        387.1       386.3       385.5       384.8       384.0       383.2       382.5       381.7       380.9       380.1    
        379.4       378.6       377.8       377.0       376.3       375.5       374.7       373.9       373.2       372.4    
        371.6       370.8       370.1       369.3       368.5       367.7       367.0       366.2       365.4       364.6    
        363.9       363.1       362.3       361.5       360.8       360.0       359.2       358.4       357.6       356.9    
        356.1       355.3       354.5       353.8       353.0       352.2       351.4       350.7       349.9       349.1    
  30    394.9       394.1       393.3       392.6       391.8       391.0       390.2       389.4       388.7       387.9    
        387.1       386.3       385.6       384.8       384.0       383.2       382.5       381.7       380.9       380.1    
        379.4       378.6       377.8       377.0       376.3       375.5       374.7       373.9       373.2       372.4    
        371.6       370.8       370.1       369.3       368.5       367.7       367.0       366.2       365.4       364.6    
        363.9       363.1       362.3       361.5       360.8       360.0       359.2       358.4       357.6       356.9    
        356.1       355.3       354.5       353.8       353.0       352.2       351.4       350.7       349.9       349.1    
  31    394.9       394.1       393.3       392.6       391.8       391.0       390.2       389.4       388.7       387.9    
        387.1       386.3       385.6       384.8       384.0       383.2       382.5       381.7       380.9       380.1    
        379.4       378.6       377.8       377.0       376.3       375.5       374.7       373.9       373.2       372.4    
        371.6       370.8       370.1       369.3       368.5       367.7       367.0       366.2       365.4       364.6    
        363.9       363.1       362.3       361.5       360.8       360.0       359.2       358.4       357.6       356.9    
        356.1       355.3       354.5       353.8       353.0       352.2       351.4       350.7       349.9       349.1    
  32    394.9       394.1       393.3       392.6       391.8       391.0       390.2       389.4       388.7       387.9    
        387.1       386.3       385.6       384.8       384.0       383.2       382.5       381.7       380.9       380.1    
        379.4       378.6       377.8       377.0       376.3       375.5       374.7       373.9       373.2       372.4    
        371.6       370.8       370.1       369.3       368.5       367.7       367.0       366.2       365.4       364.6    
        363.9       363.1       362.3       361.5       360.8       360.0       359.2       358.4       357.6       356.9    
        356.1       355.3       354.5       353.8       353.0       352.2       351.4       350.7       349.9       349.1    
  33    394.9       394.1       393.3       392.6       391.8       391.0       390.2       389.4       388.7       387.9    
        387.1       386.3       385.6       384.8       384.0       383.2       382.5       381.7       380.9       380.1    
        379.4       378.6       377.8       377.0       376.3       375.5       374.7       373.9       373.2       372.4    
        371.6       370.8       370.1       369.3       368.5       367.7       367.0       366.2       365.4       364.6    
        363.9       363.1       362.3       361.5       360.8       360.0       359.2       358.4       357.6       356.9    
        356.1       355.3       354.5       353.8       353.0       352.2       351.4       350.7       349.9       349.1    
  34    394.9       394.1       393.3       392.6       391.8       391.0       390.2       389.5       388.7       387.9    
        387.1       386.3       385.6       384.8       384.0       383.2       382.5       381.7       380.9       380.1    
        379.4       378.6       377.8       377.0       376.3       375.5       374.7       373.9       373.2       372.4    
        371.6       370.8       370.1       369.3       368.5       367.7       367.0       366.2       365.4       364.6    
        363.9       363.1       362.3       361.5       360.8       360.0       359.2       358.4       357.6       356.9    
        356.1       355.3       354.5       353.8       353.0       352.2       351.4       350.7       349.9       349.1    
  35    394.9       394.1       393.3       392.6       391.8       391.0       390.2       389.5       388.7       387.9    
        387.1       386.3       385.6       384.8       384.0       383.2       382.5       381.7       380.9       380.1    
        379.4       378.6       377.8       377.0       376.3       375.5       374.7       373.9       373.2       372.4    
        371.6       370.8       370.1       369.3       368.5       367.7       367.0       366.2       365.4       364.6    
        363.9       363.1       362.3       361.5       360.8       360.0       359.2       358.4       357.6       356.9    
        356.1       355.3       354.5       353.8       353.0       352.2       351.4       350.7       349.9       349.1    
  36    394.9       394.1       393.3       392.6       391.8       391.0       390.2       389.5       388.7       387.9    
        387.1       386.3       385.6       384.8       384.0       383.2       382.5       381.7       380.9       380.1    
        379.4       378.6       377.8       377.0       376.3       375.5       374.7       373.9       373.2       372.4    
        371.6       370.8       370.1       369.3       368.5       367.7       367.0       366.2       365.4       364.6    
        363.9       363.1       362.3       361.5       360.8       360.0       359.2       358.4       357.6       356.9    
        356.1       355.3       354.5       353.8       353.0       352.2       351.4       350.7       349.9       349.1    
  37    394.9       394.1       393.3       392.6       391.8       391.0       390.2       389.5       388.7       387.9    
        387.1       386.4       385.6       384.8       384.0       383.2       382.5       381.7       380.9       380.1    
        379.4       378.6       377.8       377.0       376.3       375.5       374.7       373.9       373.2       372.4    
        371.6       370.8       370.1       369.3       368.5       367.7       367.0       366.2       365.4       364.6    
        363.9       363.1       362.3       361.5       360.8       360.0       359.2       358.4       357.6       356.9    
        356.1       355.3       354.5       353.8       353.0       352.2       351.4       350.7       349.9       349.1    
  38    394.9       394.1       393.3       392.6       391.8       391.0       390.2       389.5       388.7       387.9    
        387.1       386.4       385.6       384.8       384.0       383.2       382.5       381.7       380.9       380.1    
        379.4       378.6       377.8       377.0       376.3       375.5       374.7       373.9       373.2       372.4    
        371.6       370.8       370.1       369.3       368.5       367.7       367.0       366.2       365.4       364.6    
        363.9       363.1       362.3       361.5       360.8       360.0       359.2       358.4       357.6       356.9    
        356.1       355.3       354.5       353.8       353.0       352.2       351.4       350.7       349.9       349.1    
  39    394.9       394.1       393.3       392.6       391.8       391.0       390.2       389.5       388.7       387.9    
        387.1       386.4       385.6       384.8       384.0       383.3       382.5       381.7       380.9       380.1    
        379.4       378.6       377.8       377.0       376.3       375.5       374.7       373.9       373.2       372.4    
        371.6       370.8       370.1       369.3       368.5       367.7       367.0       366.2       365.4       364.6    
        363.9       363.1       362.3       361.5       360.8       360.0       359.2       358.4       357.6       356.9    
        356.1       355.3       354.5       353.8       353.0       352.2       351.4       350.7       349.9       349.1    
  40    394.9       394.1       393.3       392.6       391.8       391.0       390.2       389.5       388.7       387.9    
        387.1       386.4       385.6       384.8       384.0       383.3       382.5       381.7       380.9       380.1    
        379.4       378.6       377.8       377.0       376.3       375.5       374.7       373.9       373.2       372.4    
        371.6       370.8       370.1       369.3       368.5       367.7       367.0       366.2       365.4       364.6    
        363.9       363.1       362.3       361.5       360.8       360.0       359.2       358.4       357.6       356.9    
        356.1       355.3       354.5       353.8       353.0       352.2       351.4       350.7       349.9       349.1    
  41    394.9       394.1       393.3       392.6       391.8       391.0       390.2       389.5       388.7       387.9    
        387.1       386.4       385.6       384.8       384.0       383.3       382.5       381.7       380.9       380.1    
        379.4       378.6       377.8       377.0       376.3       375.5       374.7       373.9       373.2       372.4    
        371.6       370.8       370.1       369.3       368.5       367.7       367.0       366.2       365.4       364.6    
        363.9       363.1       362.3       361.5       360.8       360.0       359.2       358.4       357.6       356.9    
        356.1       355.3       354.5       353.8       353.0       352.2       351.4       350.7       349.9       349.1    
  42    394.9       394.1       393.3       392.6       391.8       391.0       390.2       389.5       388.7       387.9    
        387.1       386.4       385.6       384.8       384.0       383.3       382.5       381.7       380.9       380.2    
        379.4       378.6       377.8       377.0       376.3       375.5       374.7       373.9       373.2       372.4    
        371.6       370.8       370.1       369.3       368.5       367.7       367.0       366.2       365.4       364.6    
        363.9       363.1       362.3       361.5       360.8       360.0       359.2       358.4       357.6       356.9    
        356.1       355.3       354.5       353.8       353.0       352.2       351.4       350.7       349.9       349.1    
  43    394.9       394.1       393.3       392.6       391.8       391.0       390.2       389.5       388.7       387.9    
        387.1       386.4       385.6       384.8       384.0       383.3       382.5       381.7       380.9       380.2    
        379.4       378.6       377.8       377.0       376.3       375.5       374.7       373.9       373.2       372.4    
        371.6       370.8       370.1       369.3       368.5       367.7       367.0       366.2       365.4       364.6    
        363.9       363.1       362.3       361.5       360.8       360.0       359.2       358.4       357.6       356.9    
        356.1       355.3       354.5       353.8       353.0       352.2       351.4       350.7       349.9       349.1    
  44    394.9       394.1       393.3       392.6       391.8       391.0       390.2       389.5       388.7       387.9    
        387.1       386.4       385.6       384.8       384.0       383.3       382.5       381.7       380.9       380.2    
        379.4       378.6       377.8       377.0       376.3       375.5       374.7       373.9       373.2       372.4    
        371.6       370.8       370.1       369.3       368.5       367.7       367.0       366.2       365.4       364.6    
        363.9       363.1       362.3       361.5       360.8       360.0       359.2       358.4       357.7       356.9    
        356.1       355.3       354.5       353.8       353.0       352.2       351.4       350.7       349.9       349.1    
  45    394.9       394.1       393.3       392.6       391.8       391.0       390.2       389.5       388.7       387.9    
        387.1       386.4       385.6       384.8       384.0       383.3       382.5       381.7       380.9       380.2    
        379.4       378.6       377.8       377.0       376.3       375.5       374.7       373.9       373.2       372.4    
        371.6       370.8       370.1       369.3       368.5       367.7       367.0       366.2       365.4       364.6    
        363.9       363.1       362.3       361.5       360.8       360.0       359.2       358.4       357.7       356.9    
        356.1       355.3       354.5       353.8       353.0       352.2       351.4       350.7       349.9       349.1    
  46    394.9       394.1       393.3       392.6       391.8       391.0       390.2       389.5       388.7       387.9    
        387.1       386.4       385.6       384.8       384.0       383.3       382.5       381.7       380.9       380.2    
        379.4       378.6       377.8       377.1       376.3       375.5       374.7       373.9       373.2       372.4    
        371.6       370.8       370.1       369.3       368.5       367.7       367.0       366.2       365.4       364.6    
        363.9       363.1       362.3       361.5       360.8       360.0       359.2       358.4       357.7       356.9    
        356.1       355.3       354.5       353.8       353.0       352.2       351.4       350.7       349.9       349.1    
  47    394.9       394.1       393.3       392.6       391.8       391.0       390.2       389.5       388.7       387.9    
        387.1       386.4       385.6       384.8       384.0       383.3       382.5       381.7       380.9       380.2    
        379.4       378.6       377.8       377.1       376.3       375.5       374.7       373.9       373.2       372.4    
        371.6       370.8       370.1       369.3       368.5       367.7       367.0       366.2       365.4       364.6    
        363.9       363.1       362.3       361.5       360.8       360.0       359.2       358.4       357.7       356.9    
        356.1       355.3       354.5       353.8       353.0       352.2       351.4       350.7       349.9       349.1    
  48    394.9       394.1       393.3       392.6       391.8       391.0       390.2       389.5       388.7       387.9    
        387.1       386.4       385.6       384.8       384.0       383.3       382.5       381.7       380.9       380.2    
        379.4       378.6       377.8       377.1       376.3       375.5       374.7       373.9       373.2       372.4    
        371.6       370.8       370.1       369.3       368.5       367.7       367.0       366.2       365.4       364.6    
        363.9       363.1       362.3       361.5       360.8       360.0       359.2       358.4       357.7       356.9    
        356.1       355.3       354.5       353.8       353.0       352.2       351.4       350.7       349.9       349.1    
  49    394.9       394.1       393.3       392.6       391.8       391.0       390.2       389.5       388.7       387.9    
        387.1       386.4       385.6       384.8       384.0       383.3       382.5       381.7       380.9       380.2    
        379.4       378.6       377.8       377.1       376.3       375.5       374.7       373.9       373.2       372.4    
        371.6       370.8       370.1       369.3       368.5       367.7       367.0       366.2       365.4       364.6    
        363.9       363.1       362.3       361.5       360.8       360.0       359.2       358.4       357.7       356.9    
        356.1       355.3       354.5       353.8       353.0       352.2       351.4       350.7       349.9       349.1    
  50    394.9       394.1       393.3       392.6       391.8       391.0       390.2       389.5       388.7       387.9    
        387.1       386.4       385.6       384.8       384.0       383.3       382.5       381.7       380.9       380.2    
        379.4       378.6       377.8       377.1       376.3       375.5       374.7       373.9       373.2       372.4    
        371.6       370.8       370.1       369.3       368.5       367.7       367.0       366.2       365.4       364.6    
        363.9       363.1       362.3       361.5       360.8       360.0       359.2       358.4       357.7       356.9    
        356.1       355.3       354.5       353.8       353.0       352.2       351.4       350.7       349.9       349.1    
  51    394.9       394.1       393.3       392.6       391.8       391.0       390.2       389.5       388.7       387.9    
        387.1       386.4       385.6       384.8       384.0       383.3       382.5       381.7       380.9       380.2    
        379.4       378.6       377.8       377.1       376.3       375.5       374.7       373.9       373.2       372.4    
        371.6       370.8       370.1       369.3       368.5       367.7       367.0       366.2       365.4       364.6    
        363.9       363.1       362.3       361.5       360.8       360.0       359.2       358.4       357.7       356.9    
        356.1       355.3       354.5       353.8       353.0       352.2       351.4       350.7       349.9       349.1    
  52    394.9       394.1       393.3       392.6       391.8       391.0       390.2       389.5       388.7       387.9    
        387.1       386.4       385.6       384.8       384.0       383.3       382.5       381.7       380.9       380.2    
        379.4       378.6       377.8       377.1       376.3       375.5       374.7       373.9       373.2       372.4    
        371.6       370.8       370.1       369.3       368.5       367.7       367.0       366.2       365.4       364.6    
        363.9       363.1       362.3       361.5       360.8       360.0       359.2       358.4       357.7       356.9    
        356.1       355.3       354.5       353.8       353.0       352.2       351.4       350.7       349.9       349.1    
  53    394.9       394.1       393.3       392.6       391.8       391.0       390.2       389.5       388.7       387.9    
        387.1       386.4       385.6       384.8       384.0       383.3       382.5       381.7       380.9       380.2    
        379.4       378.6       377.8       377.1       376.3       375.5       374.7       374.0       373.2       372.4    
        371.6       370.8       370.1       369.3       368.5       367.7       367.0       366.2       365.4       364.6    
        363.9       363.1       362.3       361.5       360.8       360.0       359.2       358.4       357.7       356.9    
        356.1       355.3       354.5       353.8       353.0       352.2       351.4       350.7       349.9       349.1    
  54    394.9       394.1       393.3       392.6       391.8       391.0       390.2       389.5       388.7       387.9    
        387.1       386.4       385.6       384.8       384.0       383.3       382.5       381.7       380.9       380.2    
        379.4       378.6       377.8       377.1       376.3       375.5       374.7       374.0       373.2       372.4    
        371.6       370.8       370.1       369.3       368.5       367.7       367.0       366.2       365.4       364.6    
        363.9       363.1       362.3       361.5       360.8       360.0       359.2       358.4       357.7       356.9    
        356.1       355.3       354.5       353.8       353.0       352.2       351.4       350.7       349.9       349.1    
  55    394.9       394.1       393.3       392.6       391.8       391.0       390.2       389.5       388.7       387.9    
        387.1       386.4       385.6       384.8       384.0       383.3       382.5       381.7       380.9       380.2    
        379.4       378.6       377.8       377.1       376.3       375.5       374.7       374.0       373.2       372.4    
        371.6       370.8       370.1       369.3       368.5       367.7       367.0       366.2       365.4       364.6    
        363.9       363.1       362.3       361.5       360.8       360.0       359.2       358.4       357.7       356.9    
        356.1       355.3       354.5       353.8       353.0       352.2       351.4       350.7       349.9       349.1    
  56    394.9       394.1       393.3       392.6       391.8       391.0       390.2       389.5       388.7       387.9    
        387.1       386.4       385.6       384.8       384.0       383.3       382.5       381.7       380.9       380.2    
        379.4       378.6       377.8       377.1       376.3       375.5       374.7       374.0       373.2       372.4    
        371.6       370.8       370.1       369.3       368.5       367.7       367.0       366.2       365.4       364.6    
        363.9       363.1       362.3       361.5       360.8       360.0       359.2       358.4       357.7       356.9    
        356.1       355.3       354.5       353.8       353.0       352.2       351.4       350.7       349.9       349.1    
  57    394.9       394.1       393.3       392.6       391.8       391.0       390.2       389.5       388.7       387.9    
        387.1       386.4       385.6       384.8       384.0       383.3       382.5       381.7       380.9       380.2    
        379.4       378.6       377.8       377.1       376.3       375.5       374.7       374.0       373.2       372.4    
        371.6       370.8       370.1       369.3       368.5       367.7       367.0       366.2       365.4       364.6    
        363.9       363.1       362.3       361.5       360.8       360.0       359.2       358.4       357.7       356.9    
        356.1       355.3       354.5       353.8       353.0       352.2       351.4       350.7       349.9       349.1    
  58    394.9       394.1       393.3       392.6       391.8       391.0       390.2       389.5       388.7       387.9    
        387.1       386.4       385.6       384.8       384.0       383.3       382.5       381.7       380.9       380.2    
        379.4       378.6       377.8       377.1       376.3       375.5       374.7       374.0       373.2       372.4    
        371.6       370.8       370.1       369.3       368.5       367.7       367.0       366.2       365.4       364.6    
        363.9       363.1       362.3       361.5       360.8       360.0       359.2       358.4       357.7       356.9    
        356.1       355.3       354.5       353.8       353.0       352.2       351.4       350.7       349.9       349.1    
  59    394.9       394.1       393.3       392.6       391.8       391.0       390.2       389.5       388.7       387.9    
        387.1       386.4       385.6       384.8       384.0       383.3       382.5       381.7       380.9       380.2    
        379.4       378.6       377.8       377.1       376.3       375.5       374.7       374.0       373.2       372.4    
        371.6       370.8       370.1       369.3       368.5       367.7       367.0       366.2       365.4       364.6    
        363.9       363.1       362.3       361.5       360.8       360.0       359.2       358.4       357.7       356.9    
        356.1       355.3       354.5       353.8       353.0       352.2       351.4       350.7       349.9       349.1    
  60    394.9       394.1       393.3       392.6       391.8       391.0       390.2       389.5       388.7       387.9    
        387.1       386.4       385.6       384.8       384.0       383.3       382.5       381.7       380.9       380.2    
        379.4       378.6       377.8       377.1       376.3       375.5       374.7       374.0       373.2       372.4    
        371.6       370.8       370.1       369.3       368.5       367.7       367.0       366.2       365.4       364.6    
        363.9       363.1       362.3       361.5       360.8       360.0       359.2       358.4       357.7       356.9    
        356.1       355.3       354.5       353.8       353.0       352.2       351.4       350.7       349.9       349.1    

 HEAD WILL BE SAVED ON UNIT   51 AT END OF TIME STEP    1, STRESS PERIOD    1
1
  VOLUMETRIC BUDGET FOR ENTIRE MODEL AT END OF TIME STEP    1, STRESS PERIOD   1
  ------------------------------------------------------------------------------

     CUMULATIVE VOLUMES      L**3       RATES FOR THIS TIME STEP      L**3/T
     ------------------                 ------------------------

           IN:                                      IN:
           ---                                      ---
             STORAGE =           0.0000               STORAGE =           0.0000
       CONSTANT HEAD =      127095.0469         CONSTANT HEAD =      127095.0469
               WELLS =           0.0000                 WELLS =           0.0000
            RECHARGE =         654.0000              RECHARGE =         654.0000

            TOTAL IN =      127749.0469              TOTAL IN =      127749.0469

          OUT:                                     OUT:
          ----                                     ----
             STORAGE =           0.0000               STORAGE =           0.0000
       CONSTANT HEAD =      126921.7734         CONSTANT HEAD =      126921.7734
               WELLS =         827.2745                 WELLS =         827.2745
            RECHARGE =           0.0000              RECHARGE =           0.0000

           TOTAL OUT =      127749.0469             TOTAL OUT =      127749.0469

            IN - OUT =           0.0000              IN - OUT =           0.0000

 PERCENT DISCREPANCY =           0.00     PERCENT DISCREPANCY =           0.00






         TIME SUMMARY AT END OF TIME STEP    1 IN STRESS PERIOD    1
                    SECONDS     MINUTES      HOURS       DAYS        YEARS
                    -----------------------------------------------------------
   TIME STEP LENGTH  86400.      1440.0      24.000      1.0000     2.73785E-03
 STRESS PERIOD TIME  86400.      1440.0      24.000      1.0000     2.73785E-03
         TOTAL TIME  86400.      1440.0      24.000      1.0000     2.73785E-03
1

 Run end date and time (yyyy/mm/dd hh:mm:ss): 2026/02/12 21:11:05
 Elapsed run time:  0.049 Seconds

