                                  MODFLOW-2005     
      U.S. GEOLOGICAL SURVEY MODULAR FINITE-DIFFERENCE GROUND-WATER FLOW MODEL
                            VERSION 1.12.00 2/3/2017

 LIST FILE: BoxModel_flopy.list
                         UNIT    2

 OPENING BoxModel_flopy.dis
 FILE TYPE:DIS   UNIT   11   STATUS:OLD    
 FORMAT:FORMATTED              ACCESS:SEQUENTIAL          

 OPENING BoxModel_flopy.bas
 FILE TYPE:BAS6   UNIT   13   STATUS:OLD    
 FORMAT:FORMATTED              ACCESS:SEQUENTIAL          

 OPENING BoxModel_flopy.bcf
 FILE TYPE:BCF6   UNIT   15   STATUS:OLD    
 FORMAT:FORMATTED              ACCESS:SEQUENTIAL          

 OPENING BoxModel_flopy.oc
 FILE TYPE:OC   UNIT   14   STATUS:OLD    
 FORMAT:FORMATTED              ACCESS:SEQUENTIAL          

 OPENING BoxModel_flopy.pcg
 FILE TYPE:PCG   UNIT   27   STATUS:OLD    
 FORMAT:FORMATTED              ACCESS:SEQUENTIAL          

 OPENING BoxModel_flopy.cbc
 FILE TYPE:DATA(BINARY)   UNIT   53   STATUS:REPLACE
 FORMAT:UNFORMATTED            ACCESS:STREAM              

 OPENING BoxModel_flopy.hds
 FILE TYPE:DATA(BINARY)   UNIT   51   STATUS:REPLACE
 FORMAT:UNFORMATTED            ACCESS:STREAM              

 BAS -- BASIC PACKAGE, VERSION 7, 5/2/2005 INPUT READ FROM UNIT   13
 
 MODFLOW was compiled using mixed precision
 Precision of REAL variables:           6
 Precision of DOUBLE PRECISION variables:          15

 DISCRETIZATION INPUT DATA READ FROM UNIT   11
 # DIS package for MODFLOW-2005 generated by Flopy 3.9.5
    1 LAYERS        25 ROWS        25 COLUMNS
    1 STRESS PERIOD(S) IN SIMULATION
 MODEL TIME UNIT IS DAYS
 MODEL LENGTH UNIT IS METERS
  Confining bed flag for each layer:
   0

                     DELR =   100.000    

                     DELC =   100.000    

 TOP ELEVATION OF LAYER 1 =   10.0000    

   MODEL LAYER BOTTOM EL. =   0.00000     FOR LAYER   1


 STRESS PERIOD     LENGTH       TIME STEPS     MULTIPLIER FOR DELT    SS FLAG
 ----------------------------------------------------------------------------
        1         1.000000          1                    1.000         SS

 STEADY-STATE SIMULATION



 
 # BAS6 package for MODFLOW-2005 generated by Flopy 3.9.5                        
 THE FREE FORMAT OPTION HAS BEEN SELECTED



                     BOUNDARY ARRAY FOR LAYER   1
 READING ON UNIT   13 WITH FORMAT: (25I10)             

 AQUIFER HEAD WILL BE SET TO  -999.99     AT ALL NO-FLOW NODES (IBOUND=0).



                       INITIAL HEAD FOR LAYER   1
 READING ON UNIT   13 WITH FORMAT: (25E15.6)           
 # OC package for MODFLOW-2005 generated by Flopy 3.9.5

 OUTPUT CONTROL IS SPECIFIED ONLY AT TIME STEPS FOR WHICH OUTPUT IS DESIRED
 COMPACT CELL-BY-CELL BUDGET FILES WILL BE WRITTEN
 AUXILIARY DATA WILL BE SAVED IN CELL-BY-CELL BUDGET FILES
 HEAD PRINT FORMAT CODE IS   0    DRAWDOWN PRINT FORMAT CODE IS   0
 HEADS WILL BE SAVED ON UNIT   51    DRAWDOWNS WILL BE SAVED ON UNIT    0

 BCF -- BLOCK-CENTERED FLOW PACKAGE, VERSION 7, 5/2/2005
         INPUT READ FROM UNIT 15
 STEADY-STATE SIMULATION
 CELL-BY-CELL FLOWS WILL BE SAVED ON UNIT 53
 HEAD AT CELLS THAT CONVERT TO DRY= -0.10000E+31
 WETTING CAPABILITY IS NOT ACTIVE
      LAYER  LAYER-TYPE CODE     INTERBLOCK T
      --------------------------------------------
         1            3          0 -- HARMONIC    

 COLUMN TO ROW ANISOTROPY =   1.00000    



              HYD. COND. ALONG ROWS FOR LAYER   1
 READING ON UNIT   15 WITH FORMAT: (25E15.6)           

 PCG -- CONJUGATE-GRADIENT SOLUTION PACKAGE, VERSION 7, 5/2/2005
 # PCG package for MODFLOW-2005 generated by Flopy 3.9.5
 MAXIMUM OF     50 CALLS OF SOLUTION ROUTINE
 MAXIMUM OF     30 INTERNAL ITERATIONS PER CALL TO SOLUTION ROUTINE
 MATRIX PRECONDITIONING TYPE :    1



                                    SOLUTION BY THE CONJUGATE-GRADIENT METHOD
                                   -------------------------------------------
                    MAXIMUM NUMBER OF CALLS TO PCG ROUTINE =       50
                        MAXIMUM ITERATIONS PER CALL TO PCG =       30
                               MATRIX PRECONDITIONING TYPE =        1
        RELAXATION FACTOR (ONLY USED WITH PRECOND. TYPE 1) =    0.10000E+01
 PARAMETER OF POLYNOMIAL PRECOND. = 2 (2) OR IS CALCULATED :        0
                         HEAD CHANGE CRITERION FOR CLOSURE =    0.10000E-04
                     RESIDUAL CHANGE CRITERION FOR CLOSURE =    0.10000E-04
            PCG HEAD AND RESIDUAL CHANGE PRINTOUT INTERVAL =      999
     PRINTING FROM SOLVER IS LIMITED(1) OR SUPPRESSED (>1) =        3
                            STEADY-STATE DAMPING PARAMETER =    0.10000E+01
                               TRANSIENT DAMPING PARAMETER =    0.10000E+01
1
                            STRESS PERIOD NO.    1, LENGTH =   1.000000    
                            -----------------------------------------------

                              NUMBER OF TIME STEPS =     1

                               MULTIPLIER FOR DELT =     1.000

                            INITIAL TIME STEP SIZE =   1.000000    
 
 SOLVING FOR HEAD 

 OUTPUT CONTROL FOR STRESS PERIOD    1   TIME STEP    1
    PRINT HEAD FOR ALL LAYERS
    PRINT BUDGET
    SAVE HEAD FOR ALL LAYERS
    SAVE BUDGET
 UBDSV2 SAVING "   CONSTANT HEAD" ON UNIT  53 AT TIME STEP  1, STRESS PERIOD   1
 UBDSV1 SAVING "FLOW RIGHT FACE " ON UNIT  53 AT TIME STEP  1, STRESS PERIOD   1
 UBDSV1 SAVING "FLOW FRONT FACE " ON UNIT  53 AT TIME STEP  1, STRESS PERIOD   1
1
              HEAD IN LAYER   1 AT END OF TIME STEP   1 IN STRESS PERIOD    1
  ---------------------------------------------------------------------------

            1           2           3           4           5           6           7           8           9          10
           11          12          13          14          15          16          17          18          19          20
           21          22          23          24          25
 ........................................................................................................................
   1    20.00       19.47       18.95       18.68       18.68       18.68       18.68       18.68       18.42       17.89    
        17.37       16.84       16.31       15.79       15.26       14.74       14.21       13.68       13.16       12.63    
        12.10       11.58       11.05       10.53       10.00    
   2    20.00       19.47       18.95       18.68       18.68       18.68       18.68       18.68       18.42       17.89    
        17.37       16.84       16.31       15.79       15.26       14.74       14.21       13.68       13.16       12.63    
        12.10       11.58       11.05       10.53       10.00    
   3    20.00       19.47       18.95       18.68       18.68       18.68       18.68       18.68       18.42       17.89    
        17.37       16.84       16.31       15.79       15.26       14.74       14.21       13.68       13.16       12.63    
        12.10       11.58       11.05       10.53       10.00    
   4    20.00       19.47       18.95       18.68       18.68       18.68       18.68       18.68       18.42       17.89    
        17.37       16.84       16.31       15.79       15.26       14.74       14.21       13.68       13.16       12.63    
        12.10       11.58       11.05       10.53       10.00    
   5    20.00       19.47       18.95       18.68       18.68       18.68       18.68       18.68       18.42       17.89    
        17.37       16.84       16.31       15.79       15.26       14.74       14.21       13.68       13.16       12.63    
        12.10       11.58       11.05       10.53       10.00    
   6    20.00       19.47       18.95       18.68       18.68       18.68       18.68       18.68       18.42       17.89    
        17.37       16.84       16.31       15.79       15.26       14.74       14.21       13.68       13.16       12.63    
        12.10       11.58       11.05       10.53       10.00    
   7    20.00       19.47       18.95       18.68       18.68       18.68       18.68       18.68       18.42       17.89    
        17.37       16.84       16.31       15.79       15.26       14.74       14.21       13.68       13.16       12.63    
        12.10       11.58       11.05       10.53       10.00    
   8    20.00       19.47       18.95       18.68       18.68       18.68       18.68       18.68       18.42       17.89    
        17.37       16.84       16.31       15.79       15.26       14.74       14.21       13.68       13.16       12.63    
        12.10       11.58       11.05       10.53       10.00    
   9    20.00       19.47       18.95       18.68       18.68       18.68       18.68       18.68       18.42       17.89    
        17.37       16.84       16.31       15.79       15.26       14.74       14.21       13.68       13.16       12.63    
        12.10       11.58       11.05       10.53       10.00    
  10    20.00       19.47       18.95       18.68       18.68       18.68       18.68       18.68       18.42       17.89    
        17.37       16.84       16.31       15.79       15.26       14.74       14.21       13.68       13.16       12.63    
        12.10       11.58       11.05       10.53       10.00    
  11    20.00       19.47       18.95       18.68       18.68       18.68       18.68       18.68       18.42       17.89    
        17.37       16.84       16.31       15.79       15.26       14.74       14.21       13.68       13.16       12.63    
        12.10       11.58       11.05       10.53       10.00    
  12    20.00       19.47       18.95       18.68       18.68       18.68       18.68       18.68       18.42       17.89    
        17.37       16.84       16.31       15.79       15.26       14.74       14.21       13.68       13.16       12.63    
        12.10       11.58       11.05       10.53       10.00    
  13    20.00       19.47       18.95       18.68       18.68       18.68       18.68       18.68       18.42       17.89    
        17.37       16.84       16.31       15.79       15.26       14.74       14.21       13.68       13.16       12.63    
        12.10       11.58       11.05       10.53       10.00    
  14    20.00       19.47       18.95       18.68       18.68       18.68       18.68       18.68       18.42       17.89    
        17.37       16.84       16.31       15.79       15.26       14.74       14.21       13.68       13.16       12.63    
        12.10       11.58       11.05       10.53       10.00    
  15    20.00       19.47       18.95       18.68       18.68       18.68       18.68       18.68       18.42       17.89    
        17.37       16.84       16.31       15.79       15.26       14.74       14.21       13.68       13.16       12.63    
        12.10       11.58       11.05       10.53       10.00    
  16    20.00       19.47       18.95       18.68       18.68       18.68       18.68       18.68       18.42       17.89    
        17.37       16.84       16.31       15.79       15.26       14.74       14.21       13.68       13.16       12.63    
        12.10       11.58       11.05       10.53       10.00    
  17    20.00       19.47       18.95       18.68       18.68       18.68       18.68       18.68       18.42       17.89    
        17.37       16.84       16.31       15.79       15.26       14.74       14.21       13.68       13.16       12.63    
        12.10       11.58       11.05       10.53       10.00    
  18    20.00       19.47       18.95       18.68       18.68       18.68       18.68       18.68       18.42       17.89    
        17.37       16.84       16.31       15.79       15.26       14.74       14.21       13.68       13.16       12.63    
        12.10       11.58       11.05       10.53       10.00    
  19    20.00       19.47       18.95       18.68       18.68       18.68       18.68       18.68       18.42       17.89    
        17.37       16.84       16.31       15.79       15.26       14.74       14.21       13.68       13.16       12.63    
        12.10       11.58       11.05       10.53       10.00    
  20    20.00       19.47       18.95       18.68       18.68       18.68       18.68       18.68       18.42       17.89    
        17.37       16.84       16.31       15.79       15.26       14.74       14.21       13.68       13.16       12.63    
        12.10       11.58       11.05       10.53       10.00    
  21    20.00       19.47       18.95       18.68       18.68       18.68       18.68       18.68       18.42       17.89    
        17.37       16.84       16.31       15.79       15.26       14.74       14.21       13.68       13.16       12.63    
        12.10       11.58       11.05       10.53       10.00    
  22    20.00       19.47       18.95       18.68       18.68       18.68       18.68       18.68       18.42       17.89    
        17.37       16.84       16.31       15.79       15.26       14.74       14.21       13.68       13.16       12.63    
        12.10       11.58       11.05       10.53       10.00    
  23    20.00       19.47       18.95       18.68       18.68       18.68       18.68       18.68       18.42       17.89    
        17.37       16.84       16.31       15.79       15.26       14.74       14.21       13.68       13.16       12.63    
        12.10       11.58       11.05       10.53       10.00    
  24    20.00       19.47       18.95       18.68       18.68       18.68       18.68       18.68       18.42       17.89    
        17.37       16.84       16.31       15.79       15.26       14.74       14.21       13.68       13.16       12.63    
        12.10       11.58       11.05       10.53       10.00    
  25    20.00       19.47       18.95       18.68       18.68       18.68       18.68       18.68       18.42       17.89    
        17.37       16.84       16.31       15.79       15.26       14.74       14.21       13.68       13.16       12.63    
        12.10       11.58       11.05       10.53       10.00    

 HEAD WILL BE SAVED ON UNIT   51 AT END OF TIME STEP    1, STRESS PERIOD    1
1
  VOLUMETRIC BUDGET FOR ENTIRE MODEL AT END OF TIME STEP    1, STRESS PERIOD   1
  ------------------------------------------------------------------------------

     CUMULATIVE VOLUMES      L**3       RATES FOR THIS TIME STEP      L**3/T
     ------------------                 ------------------------

           IN:                                      IN:
           ---                                      ---
             STORAGE =           0.0000               STORAGE =           0.0000
       CONSTANT HEAD =         131.5523         CONSTANT HEAD =         131.5523

            TOTAL IN =         131.5523              TOTAL IN =         131.5523

          OUT:                                     OUT:
          ----                                     ----
             STORAGE =           0.0000               STORAGE =           0.0000
       CONSTANT HEAD =         131.5523         CONSTANT HEAD =         131.5523

           TOTAL OUT =         131.5523             TOTAL OUT =         131.5523

            IN - OUT =           0.0000              IN - OUT =           0.0000

 PERCENT DISCREPANCY =           0.00     PERCENT DISCREPANCY =           0.00






         TIME SUMMARY AT END OF TIME STEP    1 IN STRESS PERIOD    1
                    SECONDS     MINUTES      HOURS       DAYS        YEARS
                    -----------------------------------------------------------
   TIME STEP LENGTH  86400.      1440.0      24.000      1.0000     2.73785E-03
 STRESS PERIOD TIME  86400.      1440.0      24.000      1.0000     2.73785E-03
         TOTAL TIME  86400.      1440.0      24.000      1.0000     2.73785E-03
1

 Run end date and time (yyyy/mm/dd hh:mm:ss): 2026/02/05 20:23:01
 Elapsed run time:  0.043 Seconds

