                                  MODFLOW-2005     
      U.S. GEOLOGICAL SURVEY MODULAR FINITE-DIFFERENCE GROUND-WATER FLOW MODEL
                            VERSION 1.12.00 2/3/2017

 LIST FILE: BoxModel_flopy.list
                         UNIT    2

 OPENING BoxModel_flopy.dis
 FILE TYPE:DIS   UNIT   11   STATUS:OLD    
 FORMAT:FORMATTED              ACCESS:SEQUENTIAL          

 OPENING BoxModel_flopy.bas
 FILE TYPE:BAS6   UNIT   13   STATUS:OLD    
 FORMAT:FORMATTED              ACCESS:SEQUENTIAL          

 OPENING BoxModel_flopy.bcf
 FILE TYPE:BCF6   UNIT   15   STATUS:OLD    
 FORMAT:FORMATTED              ACCESS:SEQUENTIAL          

 OPENING BoxModel_flopy.oc
 FILE TYPE:OC   UNIT   14   STATUS:OLD    
 FORMAT:FORMATTED              ACCESS:SEQUENTIAL          

 OPENING BoxModel_flopy.pcg
 FILE TYPE:PCG   UNIT   27   STATUS:OLD    
 FORMAT:FORMATTED              ACCESS:SEQUENTIAL          

 OPENING BoxModel_flopy.rch
 FILE TYPE:RCH   UNIT   19   STATUS:OLD    
 FORMAT:FORMATTED              ACCESS:SEQUENTIAL          

 OPENING BoxModel_flopy.cbc
 FILE TYPE:DATA(BINARY)   UNIT   53   STATUS:REPLACE
 FORMAT:UNFORMATTED            ACCESS:STREAM              

 OPENING BoxModel_flopy.hds
 FILE TYPE:DATA(BINARY)   UNIT   51   STATUS:REPLACE
 FORMAT:UNFORMATTED            ACCESS:STREAM              

 BAS -- BASIC PACKAGE, VERSION 7, 5/2/2005 INPUT READ FROM UNIT   13
 
 MODFLOW was compiled using mixed precision
 Precision of REAL variables:           6
 Precision of DOUBLE PRECISION variables:          15

 DISCRETIZATION INPUT DATA READ FROM UNIT   11
 # DIS package for MODFLOW-2005 generated by Flopy 3.9.5
    1 LAYERS        30 ROWS        30 COLUMNS
    1 STRESS PERIOD(S) IN SIMULATION
 MODEL TIME UNIT IS DAYS
 MODEL LENGTH UNIT IS METERS
  Confining bed flag for each layer:
   0

                     DELR =   100.000    

                     DELC =   100.000    

 TOP ELEVATION OF LAYER 1 =   200.000    

   MODEL LAYER BOTTOM EL. =   0.00000     FOR LAYER   1


 STRESS PERIOD     LENGTH       TIME STEPS     MULTIPLIER FOR DELT    SS FLAG
 ----------------------------------------------------------------------------
        1         1.000000          1                    1.000         SS

 STEADY-STATE SIMULATION



 
 # BAS6 package for MODFLOW-2005 generated by Flopy 3.9.5                        
 THE FREE FORMAT OPTION HAS BEEN SELECTED



                     BOUNDARY ARRAY FOR LAYER   1
 READING ON UNIT   13 WITH FORMAT: (30I10)             

 AQUIFER HEAD WILL BE SET TO  -999.99     AT ALL NO-FLOW NODES (IBOUND=0).



                       INITIAL HEAD FOR LAYER   1
 READING ON UNIT   13 WITH FORMAT: (30E15.6)           
 # OC package for MODFLOW-2005 generated by Flopy 3.9.5

 OUTPUT CONTROL IS SPECIFIED ONLY AT TIME STEPS FOR WHICH OUTPUT IS DESIRED
 COMPACT CELL-BY-CELL BUDGET FILES WILL BE WRITTEN
 AUXILIARY DATA WILL BE SAVED IN CELL-BY-CELL BUDGET FILES
 HEAD PRINT FORMAT CODE IS   0    DRAWDOWN PRINT FORMAT CODE IS   0
 HEADS WILL BE SAVED ON UNIT   51    DRAWDOWNS WILL BE SAVED ON UNIT    0

 BCF -- BLOCK-CENTERED FLOW PACKAGE, VERSION 7, 5/2/2005
         INPUT READ FROM UNIT 15
 STEADY-STATE SIMULATION
 CELL-BY-CELL FLOWS WILL BE SAVED ON UNIT 53
 HEAD AT CELLS THAT CONVERT TO DRY= -0.10000E+31
 WETTING CAPABILITY IS NOT ACTIVE
      LAYER  LAYER-TYPE CODE     INTERBLOCK T
      --------------------------------------------
         1            3          0 -- HARMONIC    

 COLUMN TO ROW ANISOTROPY =   1.00000    



              HYD. COND. ALONG ROWS FOR LAYER   1
 READING ON UNIT   15 WITH FORMAT: (30E15.6)           

 RCH -- RECHARGE PACKAGE, VERSION 7, 5/2/2005 INPUT READ FROM UNIT   19
 # RCH package for MODFLOW-2005 generated by Flopy 3.9.5
 No named parameters
 OPTION 3 -- RECHARGE TO HIGHEST ACTIVE NODE IN EACH VERTICAL COLUMN


     0 Recharge parameters

 PCG -- CONJUGATE-GRADIENT SOLUTION PACKAGE, VERSION 7, 5/2/2005
 # PCG package for MODFLOW-2005 generated by Flopy 3.9.5
 MAXIMUM OF     50 CALLS OF SOLUTION ROUTINE
 MAXIMUM OF     30 INTERNAL ITERATIONS PER CALL TO SOLUTION ROUTINE
 MATRIX PRECONDITIONING TYPE :    1



                                    SOLUTION BY THE CONJUGATE-GRADIENT METHOD
                                   -------------------------------------------
                    MAXIMUM NUMBER OF CALLS TO PCG ROUTINE =       50
                        MAXIMUM ITERATIONS PER CALL TO PCG =       30
                               MATRIX PRECONDITIONING TYPE =        1
        RELAXATION FACTOR (ONLY USED WITH PRECOND. TYPE 1) =    0.10000E+01
 PARAMETER OF POLYNOMIAL PRECOND. = 2 (2) OR IS CALCULATED :        0
                         HEAD CHANGE CRITERION FOR CLOSURE =    0.10000E-04
                     RESIDUAL CHANGE CRITERION FOR CLOSURE =    0.10000E-04
            PCG HEAD AND RESIDUAL CHANGE PRINTOUT INTERVAL =      999
     PRINTING FROM SOLVER IS LIMITED(1) OR SUPPRESSED (>1) =        3
                            STEADY-STATE DAMPING PARAMETER =    0.10000E+01
                               TRANSIENT DAMPING PARAMETER =    0.10000E+01
1
                            STRESS PERIOD NO.    1, LENGTH =   1.000000    
                            -----------------------------------------------

                              NUMBER OF TIME STEPS =     1

                               MULTIPLIER FOR DELT =     1.000

                            INITIAL TIME STEP SIZE =   1.000000    



                           RECHARGE
 READING ON UNIT   19 WITH FORMAT: (30E15.6)           
 
 SOLVING FOR HEAD 

 MAXIMUM HEAD CHANGE FOR EACH ITERATION (1 INDICATES THE FIRST INNER ITERATION):

    HEAD CHANGE    HEAD CHANGE    HEAD CHANGE    HEAD CHANGE    HEAD CHANGE 
   LAYER,ROW,COL  LAYER,ROW,COL  LAYER,ROW,COL  LAYER,ROW,COL  LAYER,ROW,COL
 ---------------------------------------------------------------------------
  1   336.8      0  -134.3      0  -85.66      0   34.24      0   29.19    
   (  1,  3, 17)  (  1,  3, 16)  (  1,  2, 20)  (  1, 10, 16)  (  1,  1, 16)
  0   10.27      0   6.972      0  -3.102      0  -1.322      0 -0.5656    
   (  1,  2, 23)  (  1,  2, 25)  (  1, 30, 20)  (  1, 30, 18)  (  1, 30, 18)
  0 -0.2457      0 -0.1331      0 -0.4642E-01  0 -0.2878E-01  0 -0.1890E-01
   (  1, 30, 17)  (  1, 29, 21)  (  1, 30, 16)  (  1, 28, 16)  (  1,  5, 17)
  0  0.1043E-01  0 -0.4771E-02  0  0.3200E-02  0  0.1226E-02  0 -0.4631E-03
   (  1,  3, 16)  (  1,  6, 25)  (  1,  3, 22)  (  1,  9, 17)  (  1,  7, 16)
  0  0.3609E-03  0  0.1511E-03  0 -0.6871E-04  0  0.3633E-04  0  0.1394E-04
   (  1, 30, 20)  (  1, 28, 23)  (  1,  9, 23)  (  1, 28, 20)  (  1, 27, 23)
  0  0.7169E-05  0 -0.2972E-05  1  -20.93      0  -13.78      0  -8.094    
   (  1, 25, 25)  (  1, 19, 23)  (  1,  4, 17)  (  1,  1, 21)  (  1, 30, 21)
  0  -2.965      0  -2.410      0  -1.399      0 -0.9217      0 -0.3287    
   (  1,  1, 26)  (  1,  5, 21)  (  1,  1, 27)  (  1, 27, 16)  (  1, 30, 16)
  0  0.1601      0 -0.5806E-01  0 -0.3729E-01  0  0.1796E-01  0 -0.1098E-01
   (  1,  5, 27)  (  1, 28, 16)  (  1, 22, 16)  (  1,  2, 21)  (  1,  4, 22)
  0  0.4801E-02  0  0.3193E-02  0 -0.2166E-02  0  0.1375E-02  0  0.6160E-03
   (  1,  4, 22)  (  1,  6, 18)  (  1,  4, 16)  (  1,  3, 22)  (  1, 26, 25)
  0  0.2351E-03  0  0.1306E-03  0 -0.1126E-03  0 -0.4906E-04  0 -0.2203E-04
   (  1, 30, 19)  (  1,  7, 16)  (  1, 15, 23)  (  1, 30, 27)  (  1, 13, 23)
  0 -0.1095E-04  0 -0.5244E-05  0  0.2164E-05  0 -0.1339E-05  0  0.7009E-06
   (  1, 27, 27)  (  1,  5, 25)  (  1,  4, 25)  (  1,  3, 16)  (  1,  4, 16)
  0 -0.3860E-06  0  0.1753E-06  1  0.5011      0 -0.2660      0 -0.2045    
   (  1,  6, 22)  (  1,  1, 17)  (  1,  5, 17)  (  1, 12, 25)  (  1, 30, 25)
  0 -0.1079      0  0.8641E-01  0  0.4322E-01  0  0.2329E-01  0 -0.1079E-01
   (  1, 30, 24)  (  1,  5, 20)  (  1,  1, 23)  (  1,  3, 21)  (  1,  6, 24)
  0  0.5040E-02  0 -0.2101E-02  0  0.8852E-03  0  0.5683E-03  0  0.2484E-03
   (  1,  2, 20)  (  1,  4, 22)  (  1, 24, 16)  (  1, 23, 23)  (  1, 16, 24)
  0  0.1204E-03  0  0.8511E-04  0 -0.5037E-04  0  0.1964E-04  0 -0.1159E-04
   (  1, 19, 22)  (  1,  2, 16)  (  1,  5, 16)  (  1, 10, 24)  (  1,  3, 19)
  0  0.6835E-05  0  0.4197E-05  0 -0.2701E-05  0  0.1638E-05  0 -0.5532E-06
   (  1,  1, 17)  (  1,  9, 16)  (  1,  3, 21)  (  1,  4, 23)  (  1, 18, 23)
  0 -0.2573E-06  0  0.1167E-06  0 -0.5050E-07  0  0.3887E-07  0  0.2313E-07
   (  1, 30, 18)  (  1,  9, 23)  (  1,  3, 16)  (  1,  4, 17)  (  1,  3, 24)
  1  0.3074E-01  0  0.1399E-01  0 -0.8403E-02  0  0.3914E-02  0  0.1979E-02
   (  1,  4, 21)  (  1, 21, 23)  (  1,  1, 16)  (  1,  7, 24)  (  1,  1, 26)
  0  0.1623E-02  0  0.9828E-03  0  0.3887E-03  0 -0.2018E-03  0  0.1199E-03
   (  1,  1, 26)  (  1, 30, 18)  (  1, 30, 16)  (  1,  5, 27)  (  1, 29, 21)
  0  0.4211E-04  0  0.1953E-04  0  0.1039E-04  0 -0.5031E-05  0  0.4356E-05
   (  1,  2, 26)  (  1, 24, 16)  (  1,  7, 20)  (  1,  1, 16)  (  1,  4, 16)
  0 -0.2371E-05  0 -0.1032E-05  0 -0.5424E-06  0 -0.2834E-06  0 -0.1096E-06
   (  1,  5, 17)  (  1, 28, 26)  (  1, 28, 25)  (  1,  1, 21)  (  1,  7, 16)
  0 -0.8836E-07  0  0.5011E-07  0  0.2394E-07  1 -0.9541E-03  0  0.4714E-03
   (  1,  4, 19)  (  1, 11, 25)  (  1, 14, 24)  (  1,  5, 17)  (  1, 13, 26)
  0  0.3431E-03  0  0.2063E-03  0 -0.1551E-03  0 -0.8870E-04  0 -0.4402E-04
   (  1, 30, 26)  (  1, 30, 24)  (  1,  5, 20)  (  1,  1, 23)  (  1,  1, 23)
  0 -0.1868E-04  0 -0.7946E-05  0  0.3529E-05  0 -0.1786E-05  0 -0.1017E-05
   (  1, 30, 27)  (  1, 29, 19)  (  1,  4, 23)  (  1, 24, 16)  (  1, 23, 23)
  0 -0.3804E-06  0 -0.2219E-06  0 -0.1538E-06  0  0.8930E-07  0  0.4366E-07
   (  1, 16, 24)  (  1, 20, 23)  (  1,  1, 17)  (  1,  4, 16)  (  1,  4, 23)
  0 -0.2633E-07  1 -0.5680E-04  0  0.2390E-04  0  0.1483E-04  0 -0.5899E-05
   (  1,  6, 25)  (  1,  5, 22)  (  1,  3, 16)  (  1,  1, 17)  (  1,  7, 24)
  0 -0.3615E-05  0 -0.3023E-05  0 -0.1587E-05  0 -0.6491E-06  0  0.3341E-06
   (  1, 30, 20)  (  1, 30, 20)  (  1, 30, 18)  (  1, 30, 17)  (  1,  5, 27)
  0 -0.2301E-06  0 -0.7924E-07  0  0.3305E-07  1  0.1853E-05  0  0.8889E-06
   (  1, 29, 21)  (  1,  2, 25)  (  1, 11, 24)  (  1,  5, 17)  (  1, 30, 21)
  0 -0.7660E-06  0 -0.3821E-06  0  0.2657E-06  0  0.1656E-06  0  0.8479E-07
   (  1, 30, 25)  (  1, 30, 23)  (  1,  5, 21)  (  1,  1, 24)  (  1,  4, 23)
  0 -0.4516E-07  1  0.2133E-06  0 -0.1284E-06  0 -0.4513E-07  0 -0.2691E-07
   (  1,  1, 20)  (  1,  4, 21)  (  1,  2, 16)  (  1,  1, 20)  (  1,  4, 27)
  0  0.1892E-07  1 -0.1006E-06  0  0.4246E-07  0  0.3271E-07  0  0.1401E-07
   (  1, 10, 18)  (  1, 28, 16)  (  1,  7, 16)  (  1,  4, 23)  (  1,  6, 19)
  0 -0.1175E-07  1  0.1225E-06  0 -0.2839E-07  0 -0.1898E-07  0 -0.1289E-07
   (  1,  2, 16)  (  1, 28, 16)  (  1,  2, 16)  (  1, 28, 17)  (  1, 28, 17)
  0  0.4334E-08  1 -0.1281E-06  0  0.2181E-07  0  0.2469E-07  0 -0.9701E-08
   (  1, 27, 17)  (  1, 28, 16)  (  1,  7, 16)  (  1, 28, 17)  (  1, 27, 17)
  0 -0.7383E-08  1  0.1287E-06  0 -0.2885E-07  0 -0.2146E-07  0 -0.1177E-07
   (  1,  3, 16)  (  1, 28, 16)  (  1,  3, 16)  (  1, 28, 17)  (  1, 29, 16)
  0  0.5053E-08  1 -0.1265E-06  0  0.2185E-07  0  0.2365E-07  0 -0.9414E-08
   (  1,  7, 16)  (  1, 28, 16)  (  1,  7, 16)  (  1, 28, 17)  (  1, 27, 17)
  0 -0.7044E-08  1  0.1275E-06  0 -0.3037E-07  0 -0.2199E-07  0 -0.1161E-07
   (  1,  3, 16)  (  1, 28, 16)  (  1,  3, 16)  (  1, 28, 17)  (  1, 29, 16)
  0  0.4982E-08  1 -0.1262E-06  0  0.2199E-07  0  0.2360E-07  0  0.9233E-08
   (  1,  7, 16)  (  1, 28, 16)  (  1,  7, 16)  (  1, 28, 17)  (  1, 29, 16)
  0 -0.6948E-08  1  0.1270E-06  0 -0.3127E-07  0 -0.2228E-07  0 -0.1165E-07
   (  1,  3, 16)  (  1, 28, 16)  (  1,  3, 16)  (  1, 28, 17)  (  1, 29, 16)
  0  0.4980E-08  1 -0.1261E-06  0  0.2202E-07  0  0.2354E-07  0  0.9296E-08
   (  1,  7, 16)  (  1, 28, 16)  (  1,  7, 16)  (  1, 28, 17)  (  1, 29, 16)
  0 -0.6860E-08  1  0.1267E-06  0 -0.3174E-07  0 -0.2251E-07  0 -0.1163E-07
   (  1,  3, 16)  (  1, 28, 16)  (  1,  3, 16)  (  1, 28, 17)  (  1, 29, 16)
  0  0.4974E-08  1 -0.1260E-06  0  0.2200E-07  0  0.2353E-07  0  0.9336E-08
   (  1,  7, 16)  (  1, 28, 16)  (  1,  7, 16)  (  1, 28, 17)  (  1, 29, 16)
  0 -0.6786E-08  1  0.1265E-06  0 -0.3199E-07  0 -0.2269E-07  0 -0.1161E-07
   (  1,  3, 16)  (  1, 28, 16)  (  1,  3, 16)  (  1, 28, 17)  (  1, 29, 16)
  0  0.4960E-08  1 -0.1260E-06  0  0.2196E-07  0  0.2353E-07  0  0.9360E-08
   (  1,  7, 16)  (  1, 28, 16)  (  1,  7, 16)  (  1, 28, 17)  (  1, 29, 16)
  1  0.1095E-06  0  0.3945E-07  0 -0.2174E-07  0 -0.1222E-07  0 -0.5261E-08
   (  1, 28, 16)  (  1,  3, 16)  (  1, 28, 17)  (  1, 29, 16)  (  1,  8, 16)
  1 -0.1263E-06  0  0.2080E-07  0  0.2129E-07  0  0.9445E-08  1  0.1195E-06
   (  1, 28, 16)  (  1, 29, 18)  (  1, 28, 17)  (  1, 29, 16)  (  1, 28, 16)
  0 -0.3517E-07  0 -0.1774E-07  0 -0.1498E-07  1 -0.1234E-06  0  0.2055E-07
   (  1,  3, 16)  (  1, 29, 18)  (  1, 29, 16)  (  1, 28, 16)  (  1, 29, 18)
  0  0.1599E-07  0 -0.1250E-07  1  0.1225E-06  0 -0.3104E-07  0 -0.2033E-07
   (  1, 29, 16)  (  1,  2, 16)  (  1, 28, 16)  (  1,  3, 16)  (  1, 28, 17)
  0 -0.1116E-07  1 -0.1221E-06  0  0.1765E-07  0  0.1725E-07  0 -0.1107E-07
   (  1, 29, 16)  (  1, 28, 16)  (  1,  3, 19)  (  1, 28, 17)  (  1,  2, 16)
  1  0.1187E-06  0 -0.3436E-07  0 -0.2296E-07  0 -0.8786E-08  1 -0.1193E-06
   (  1, 28, 16)  (  1,  3, 16)  (  1, 28, 17)  (  1, 29, 16)  (  1, 28, 16)
  0 -0.2143E-07  0  0.2136E-07  0 -0.1221E-07  1  0.1139E-06  0 -0.3941E-07
   (  1,  7, 16)  (  1, 28, 17)  (  1,  2, 16)  (  1, 28, 16)  (  1,  3, 16)
  0 -0.2395E-07  0  0.8752E-08  1 -0.1170E-06  0 -0.2346E-07  0  0.2314E-07
   (  1, 28, 17)  (  1,  3, 19)  (  1, 28, 16)  (  1,  7, 16)  (  1, 28, 17)
  0 -0.1219E-07  1  0.1127E-06  0 -0.4063E-07  0 -0.2443E-07  0  0.8562E-08
   (  1,  2, 16)  (  1, 28, 16)  (  1,  3, 16)  (  1, 28, 17)  (  1,  2, 18)
  1 -0.1173E-06  0 -0.2301E-07  0  0.2256E-07  0 -0.1176E-07  1  0.1148E-06
   (  1, 28, 16)  (  1,  7, 16)  (  1, 28, 17)  (  1,  2, 16)  (  1, 28, 16)
  0 -0.3886E-07  0 -0.2355E-07  0 -0.9001E-08  1 -0.1203E-06  0 -0.1962E-07
   (  1,  3, 16)  (  1, 28, 17)  (  1, 29, 16)  (  1, 28, 16)  (  1,  7, 16)
  0  0.2052E-07  0 -0.1043E-07  1  0.1193E-06  0 -0.3404E-07  0 -0.2167E-07
   (  1, 28, 17)  (  1,  2, 16)  (  1, 28, 16)  (  1,  3, 16)  (  1, 28, 17)
  0 -0.1038E-07  1 -0.1236E-06  0  0.1890E-07  0  0.1559E-07  0  0.8858E-08
   (  1, 29, 16)  (  1, 28, 16)  (  1, 29, 18)  (  1, 29, 16)  (  1, 29, 16)
  1  0.1227E-06  0 -0.2875E-07  0 -0.1933E-07  0 -0.1072E-07  1 -0.1229E-06
   (  1, 28, 16)  (  1,  3, 16)  (  1, 28, 17)  (  1, 29, 16)  (  1, 28, 16)
  0  0.1679E-07  0  0.1722E-07  0 -0.1355E-07  1  0.1184E-06  0 -0.3323E-07
   (  1, 29, 18)  (  1, 28, 17)  (  1,  2, 16)  (  1, 28, 16)  (  1,  4, 16)
  0 -0.2250E-07  0 -0.9096E-08  1 -0.1157E-06  0  0.2153E-07  0  0.2343E-07
   (  1, 28, 17)  (  1, 29, 16)  (  1, 28, 16)  (  1,  8, 16)  (  1, 28, 17)
  0 -0.1293E-07  1  0.1075E-06  0 -0.4209E-07  0 -0.2665E-07  0  0.7108E-08
   (  1,  2, 16)  (  1, 28, 16)  (  1,  4, 16)  (  1, 28, 17)  (  1,  9, 16)
  0  0.6391E-08  1 -0.1316E-06  0  0.3340E-07  0 -0.1313E-07  0  0.9253E-08
   (  1, 27, 17)  (  1, 28, 16)  (  1, 29, 18)  (  1,  1, 16)  (  1, 29, 16)
  1  0.1209E-06  0  0.2205E-07  0 -0.1979E-07  0 -0.1563E-07  1 -0.1160E-06
   (  1, 28, 16)  (  1,  4, 16)  (  1,  2, 16)  (  1, 29, 16)  (  1, 28, 16)
  0  0.2581E-07  0  0.2029E-07  0  0.7907E-08  0 -0.9929E-08  1  0.1267E-06
   (  1,  7, 16)  (  1, 28, 17)  (  1,  4, 16)  (  1,  2, 16)  (  1, 28, 16)
  0 -0.3197E-07  0 -0.1701E-07  0 -0.1214E-07  0  0.5451E-08  1 -0.1238E-06
   (  1,  2, 16)  (  1, 28, 17)  (  1, 29, 16)  (  1,  7, 16)  (  1, 28, 16)
  0  0.2547E-07  0  0.2361E-07  0  0.9195E-08  0 -0.8348E-08  1  0.1275E-06
   (  1,  7, 16)  (  1, 28, 17)  (  1,  4, 16)  (  1,  2, 16)  (  1, 28, 16)
  0 -0.3050E-07  0 -0.1789E-07  0 -0.1238E-07  0  0.5307E-08  1 -0.1249E-06
   (  1,  2, 16)  (  1, 28, 17)  (  1, 29, 16)  (  1,  7, 16)  (  1, 28, 16)
  0  0.2407E-07  0  0.2340E-07  0  0.8794E-08  0 -0.8013E-08  1  0.1275E-06
   (  1,  7, 16)  (  1, 28, 17)  (  1, 29, 16)  (  1,  3, 16)  (  1, 28, 16)
  0 -0.3044E-07  0 -0.1883E-07  0 -0.1217E-07  0  0.5346E-08
   (  1,  2, 16)  (  1, 28, 17)  (  1, 29, 16)  (  1,  7, 16)

 MAXIMUM RESIDUAL FOR EACH ITERATION (1 INDICATES THE FIRST INNER ITERATION):

    RESIDUAL       RESIDUAL       RESIDUAL       RESIDUAL       RESIDUAL    
   LAYER,ROW,COL  LAYER,ROW,COL  LAYER,ROW,COL  LAYER,ROW,COL  LAYER,ROW,COL
 ---------------------------------------------------------------------------
  1  -181.9      0  -135.8      0  -63.76      0  -36.29      0   18.51    
   (  1,  2,  2)  (  1,  2,  2)  (  1, 10,  2)  (  1,  1, 16)  (  1,  2, 29)
  0   10.58      0  -6.464      0  -3.209      0   1.134      0  0.5671    
   (  1,  2, 29)  (  1,  2, 28)  (  1,  2, 28)  (  1, 30,  4)  (  1, 30,  3)
  0  0.3005      0  0.1622      0  0.8014E-01  0  0.4651E-01  0  0.2883E-01
   (  1, 30,  3)  (  1,  2, 15)  (  1, 30,  2)  (  1, 30,  2)  (  1, 30,  2)
  0  0.2107E-01  0  0.1073E-01  0  0.5730E-02  0  0.2523E-02  0  0.1816E-02
   (  1, 30,  2)  (  1, 30,  2)  (  1, 30,  2)  (  1, 30,  2)  (  1, 30,  2)
  0  0.7444E-03  0  0.3106E-03  0  0.1246E-03  0  0.5899E-04  0 -0.3225E-04
   (  1, 30,  2)  (  1, 30,  2)  (  1, 30,  2)  (  1, 30,  2)  (  1, 30, 29)
  0 -0.1588E-04  0 -0.5607E-05  1  -1952.      0  -1883.      0  -878.7    
   (  1, 30, 29)  (  1, 30, 29)  (  1,  1,  9)  (  1,  1,  5)  (  1,  1, 16)
  0   728.3      0   629.4      0   473.4      0   302.3      0   160.2    
   (  1,  2, 16)  (  1, 30,  5)  (  1, 30,  3)  (  1, 30,  3)  (  1, 30,  2)
  0   86.84      0   42.29      0   23.78      0   11.37      0   6.109    
   (  1, 30,  2)  (  1, 30,  2)  (  1, 29,  5)  (  1, 29,  4)  (  1, 29,  4)
  0   2.661      0  -1.177      0  0.9185      0  0.4993      0  0.2355    
   (  1, 29,  4)  (  1, 29,  6)  (  1, 28,  6)  (  1, 28,  6)  (  1, 28,  5)
  0  0.1046      0 -0.6711E-01  0  0.3263E-01  0 -0.1532E-01  0  0.7645E-02
   (  1, 28,  5)  (  1, 28,  7)  (  1, 27,  7)  (  1, 28,  6)  (  1, 27,  6)
  0 -0.3665E-02  0 -0.1986E-02  0 -0.8545E-03  0 -0.5583E-03  0 -0.2719E-03
   (  1,  2,  2)  (  1,  2,  2)  (  1,  2,  2)  (  1,  2,  2)  (  1,  2,  2)
  0 -0.9964E-04  0 -0.5779E-04  1   47.45      0   26.21      0   20.13    
   (  1,  3,  2)  (  1, 26,  9)  (  1,  1,  8)  (  1,  1,  5)  (  1,  1, 29)
  0   14.59      0   10.90      0  -7.669      0  -4.635      0  -2.918    
   (  1,  1, 29)  (  1,  1, 16)  (  1, 30,  3)  (  1, 30,  2)  (  1, 30,  2)
  0  -1.544      0 -0.8487      0 -0.4936      0 -0.2396      0 -0.1109    
   (  1, 30,  2)  (  1, 30,  2)  (  1, 30,  2)  (  1, 30,  2)  (  1, 30,  2)
  0 -0.4740E-01  0 -0.3306E-01  0  0.1313E-01  0 -0.7398E-02  0 -0.3655E-02
   (  1, 30,  2)  (  1, 30,  2)  (  1, 30,  3)  (  1,  3, 14)  (  1,  3, 14)
  0 -0.3386E-02  0 -0.1374E-02  0 -0.6514E-03  0 -0.3138E-03  0 -0.1426E-03
   (  1,  3, 14)  (  1,  3, 14)  (  1, 29,  3)  (  1,  4, 13)  (  1,  6,  2)
  0 -0.6824E-04  0 -0.3142E-04  0  0.1685E-04  0 -0.1270E-04  0 -0.4737E-05
   (  1,  7,  2)  (  1,  1,  3)  (  1,  4, 12)  (  1,  1,  3)  (  1,  1,  3)
  1   2.836      0   2.228      0 -0.8116      0 -0.4579      0 -0.4428    
   (  1,  1, 15)  (  1,  1, 16)  (  1,  2, 16)  (  1,  1, 27)  (  1,  1, 16)
  0  0.4118      0  0.1952      0 -0.7553E-01  0  0.4103E-01  0 -0.3128E-01
   (  1,  2, 15)  (  1,  2, 15)  (  1,  2, 14)  (  1,  3, 14)  (  1,  2, 15)
  0  0.1501E-01  0 -0.6050E-02  0 -0.3176E-02  0 -0.2010E-02  0 -0.1295E-02
   (  1,  3, 15)  (  1, 30,  2)  (  1, 30,  2)  (  1,  3, 14)  (  1, 30,  2)
  0 -0.5459E-03  0  0.2569E-03  0  0.1054E-03  0  0.8961E-04  0  0.4665E-04
   (  1, 30,  2)  (  1,  2, 15)  (  1,  2, 15)  (  1,  3, 13)  (  1,  3, 13)
  0  0.2627E-04  0  0.1341E-04  0  0.7337E-05  1 -0.9090E-01  0 -0.5630E-01
   (  1,  3, 14)  (  1,  3, 14)  (  1,  4, 12)  (  1,  1,  9)  (  1,  1,  5)
  0 -0.4216E-01  0  0.2736E-01  0 -0.2095E-01  0  0.1412E-01  0  0.8289E-02
   (  1,  1, 16)  (  1, 30,  9)  (  1,  1, 16)  (  1, 30,  4)  (  1, 30,  3)
  0  0.5051E-02  0  0.2757E-02  0  0.1531E-02  0  0.9197E-03  0  0.4695E-03
   (  1, 30,  2)  (  1, 30,  2)  (  1, 30,  2)  (  1, 30,  2)  (  1, 30,  2)
  0  0.2258E-03  0  0.1005E-03  0  0.4837E-04  0  0.3177E-04  0  0.1669E-04
   (  1, 30,  2)  (  1, 30,  2)  (  1, 30,  2)  (  1, 30,  2)  (  1,  3, 14)
  0  0.9556E-05  1 -0.5531E-02  0 -0.3781E-02  0  0.1530E-02  0  0.7918E-03
   (  1,  3, 14)  (  1,  1, 16)  (  1,  1, 16)  (  1,  2, 16)  (  1,  1, 27)
  0  0.7716E-03  0 -0.7448E-03  0 -0.3167E-03  0  0.1410E-03  0 -0.7236E-04
   (  1,  1, 16)  (  1,  2, 15)  (  1,  2, 15)  (  1,  2, 14)  (  1,  3, 14)
  0  0.5364E-04  0 -0.2607E-04  0  0.9215E-05  1  0.2198E-03  0  0.1165E-03
   (  1,  2, 15)  (  1,  3, 15)  (  1,  3, 13)  (  1,  1, 12)  (  1, 30, 23)
  0  0.8672E-04  0  0.5959E-04  0 -0.3918E-04  0 -0.2643E-04  0 -0.1586E-04
   (  1,  1, 16)  (  1, 30, 23)  (  1, 30,  6)  (  1, 30,  4)  (  1, 30,  3)
  0 -0.9270E-05  1 -0.5643E-04  0  0.4104E-04  0 -0.2171E-04  0  0.1496E-04
   (  1, 30,  2)  (  1,  1, 26)  (  1, 11, 15)  (  1, 12, 15)  (  1, 11, 15)
  0  0.7121E-05  1  0.4183E-04  0  0.3130E-04  0  0.2529E-04  0  0.1679E-04
   (  1, 11, 15)  (  1, 28, 16)  (  1, 29, 15)  (  1, 29, 15)  (  1, 29, 15)
  0  0.9815E-05  1  0.3017E-04  0 -0.2590E-04  0 -0.2195E-04  0 -0.1212E-04
   (  1, 29, 15)  (  1, 28, 17)  (  1, 29, 15)  (  1, 29, 15)  (  1, 29, 15)
  0 -0.7475E-05  1  0.2648E-04  0  0.2656E-04  0  0.1952E-04  0  0.1005E-04
   (  1, 29, 15)  (  1, 29, 15)  (  1, 29, 15)  (  1, 29, 15)  (  1, 29, 15)
  0  0.6617E-05  1 -0.2708E-04  0 -0.2680E-04  0 -0.2124E-04  0 -0.1008E-04
   (  1, 29, 15)  (  1, 29, 15)  (  1, 29, 15)  (  1, 29, 15)  (  1, 29, 15)
  0 -0.6343E-05  1  0.2684E-04  0  0.2697E-04  0  0.1991E-04  0  0.1004E-04
   (  1, 29, 15)  (  1, 29, 15)  (  1, 29, 15)  (  1, 29, 15)  (  1, 29, 15)
  0  0.6663E-05  1 -0.2699E-04  0 -0.2689E-04  0 -0.2103E-04  0 -0.1022E-04
   (  1, 29, 15)  (  1, 29, 15)  (  1, 29, 15)  (  1, 29, 15)  (  1, 29, 15)
  0 -0.6372E-05  1  0.2678E-04  0  0.2700E-04  0  0.1994E-04  0  0.1007E-04
   (  1, 29, 15)  (  1, 29, 15)  (  1, 29, 15)  (  1, 29, 15)  (  1, 29, 15)
  0  0.6671E-05  1 -0.2687E-04  0 -0.2696E-04  0 -0.2105E-04  0 -0.1031E-04
   (  1, 29, 15)  (  1, 29, 15)  (  1, 29, 15)  (  1, 29, 15)  (  1, 29, 15)
  0 -0.6404E-05  1  0.2674E-04  0  0.2700E-04  0  0.1995E-04  0  0.1005E-04
   (  1, 29, 15)  (  1, 29, 15)  (  1, 29, 15)  (  1, 29, 15)  (  1, 29, 15)
  0  0.6663E-05  1 -0.2680E-04  0 -0.2700E-04  0 -0.2105E-04  0 -0.1034E-04
   (  1, 29, 15)  (  1, 29, 15)  (  1, 29, 15)  (  1, 29, 15)  (  1, 29, 15)
  0 -0.6413E-05  1  0.2673E-04  0  0.2700E-04  0  0.1995E-04  0  0.1002E-04
   (  1, 29, 15)  (  1, 29, 15)  (  1, 29, 15)  (  1, 29, 15)  (  1, 29, 15)
  0  0.6650E-05  1 -0.2676E-04  0 -0.2703E-04  0 -0.2105E-04  0 -0.1034E-04
   (  1, 29, 15)  (  1, 29, 15)  (  1, 29, 15)  (  1, 29, 15)  (  1, 29, 15)
  0 -0.6410E-05  1  0.2672E-04  0  0.2700E-04  0  0.1995E-04  0  0.9979E-05
   (  1, 29, 15)  (  1, 29, 15)  (  1, 29, 15)  (  1, 29, 15)  (  1, 29, 15)
  1  0.2939E-04  0 -0.2693E-04  0 -0.2004E-04  0 -0.1018E-04  0 -0.6719E-05
   (  1, 28, 17)  (  1, 29, 15)  (  1, 29, 15)  (  1, 29, 15)  (  1, 29, 15)
  1  0.2722E-04  0  0.2669E-04  0  0.1955E-04  0  0.9622E-05  1 -0.2578E-04
   (  1, 29, 15)  (  1, 29, 15)  (  1, 29, 15)  (  1, 29, 15)  (  1, 29, 15)
  0 -0.2661E-04  0 -0.2079E-04  0 -0.9320E-05  1  0.2811E-04  0  0.2370E-04
   (  1, 29, 15)  (  1, 29, 15)  (  1, 29, 15)  (  1, 29, 15)  (  1, 29, 15)
  0  0.1363E-04  0  0.8760E-05  1 -0.2699E-04  0 -0.2674E-04  0 -0.1948E-04
   (  1, 29, 15)  (  1, 29, 15)  (  1, 29, 15)  (  1, 29, 15)  (  1, 29, 15)
  0 -0.9303E-05  1  0.2734E-04  0  0.2596E-04  0  0.1814E-04  0  0.9161E-05
   (  1, 29, 15)  (  1, 29, 15)  (  1, 29, 15)  (  1, 29, 15)  (  1, 29, 15)
  1 -0.2618E-04  0 -0.2707E-04  0 -0.1829E-04  0 -0.9320E-05  1  0.2634E-04
   (  1, 29, 15)  (  1, 29, 15)  (  1, 29, 15)  (  1, 29, 15)  (  1, 29, 15)
  0  0.2667E-04  0  0.1792E-04  0  0.9384E-05  1  0.2658E-04  0 -0.2717E-04
   (  1, 29, 15)  (  1, 29, 15)  (  1, 29, 15)  (  1, 28, 17)  (  1, 29, 15)
  0 -0.1800E-04  0 -0.9540E-05  1  0.2567E-04  0  0.2680E-04  0  0.1725E-04
   (  1, 29, 15)  (  1, 29, 15)  (  1, 29, 15)  (  1, 29, 15)  (  1, 29, 15)
  0  0.9353E-05  1  0.2725E-04  0 -0.2718E-04  0 -0.1803E-04  0 -0.9518E-05
   (  1, 29, 15)  (  1, 28, 17)  (  1, 29, 15)  (  1, 29, 15)  (  1, 29, 15)
  1  0.2567E-04  0  0.2677E-04  0  0.1758E-04  0  0.9243E-05  1  0.2639E-04
   (  1, 29, 15)  (  1, 29, 15)  (  1, 29, 15)  (  1, 29, 15)  (  1, 28, 17)
  0 -0.2715E-04  0 -0.1841E-04  0 -0.9341E-05  1  0.2657E-04  0  0.2653E-04
   (  1, 29, 15)  (  1, 29, 15)  (  1, 29, 15)  (  1, 29, 15)  (  1, 29, 15)
  0  0.1809E-04  0  0.9037E-05  1 -0.2629E-04  0 -0.2701E-04  0 -0.1893E-04
   (  1, 29, 15)  (  1, 29, 15)  (  1, 29, 15)  (  1, 29, 15)  (  1, 29, 15)
  0 -0.9188E-05  1  0.2769E-04  0  0.2526E-04  0  0.1741E-04  0  0.8867E-05
   (  1, 29, 15)  (  1, 29, 15)  (  1, 29, 15)  (  1, 29, 15)  (  1, 29, 15)
  1 -0.2738E-04  0 -0.2656E-04  0 -0.1907E-04  0 -0.9245E-05  1  0.2754E-04
   (  1, 29, 15)  (  1, 29, 15)  (  1, 29, 15)  (  1, 29, 15)  (  1, 29, 15)
  0  0.2578E-04  0  0.1784E-04  0  0.9085E-05  1 -0.2609E-04  0 -0.2708E-04
   (  1, 29, 15)  (  1, 29, 15)  (  1, 29, 15)  (  1, 29, 15)  (  1, 29, 15)
  0 -0.1851E-04  0 -0.9687E-05  1 -0.2545E-04  0  0.2686E-04  0  0.1693E-04
   (  1, 29, 15)  (  1, 29, 15)  (  1, 28, 17)  (  1, 29, 15)  (  1, 29, 15)
  0  0.9900E-05  1  0.2883E-04  0 -0.2719E-04  0 -0.1621E-04  0 -0.1055E-04
   (  1, 29, 15)  (  1, 28, 17)  (  1, 29, 15)  (  1, 29, 15)  (  1, 29, 15)
  0 -0.5569E-05  1  0.2715E-04  0  0.2544E-04  0  0.1950E-04  0  0.9987E-05
   (  1, 29, 15)  (  1, 29, 15)  (  1, 29, 15)  (  1, 29, 15)  (  1, 29, 15)
  1 -0.2570E-04  0 -0.2623E-04  0 -0.2127E-04  0 -0.9794E-05  1  0.2581E-04
   (  1, 29, 15)  (  1, 29, 15)  (  1, 29, 15)  (  1, 29, 15)  (  1, 29, 15)
  0  0.2665E-04  0  0.1739E-04  0  0.1065E-04  0  0.6636E-05  1 -0.2722E-04
   (  1, 29, 15)  (  1, 29, 15)  (  1, 29, 15)  (  1, 29, 15)  (  1, 29, 15)
  0 -0.2645E-04  0 -0.2096E-04  0 -0.1085E-04  0 -0.6491E-05  1 -0.2647E-04
   (  1, 29, 15)  (  1, 29, 15)  (  1, 29, 15)  (  1, 29, 15)  (  1, 28, 17)
  0  0.2714E-04  0  0.2010E-04  0  0.1169E-04  0  0.6999E-05  1 -0.2711E-04
   (  1, 29, 15)  (  1, 29, 15)  (  1, 29, 15)  (  1, 29, 15)  (  1, 29, 15)
  0 -0.2647E-04  0 -0.2110E-04  0 -0.1061E-04  0 -0.6524E-05  1  0.2659E-04
   (  1, 29, 15)  (  1, 29, 15)  (  1, 29, 15)  (  1, 29, 15)  (  1, 29, 15)
  0  0.2708E-04  0  0.1995E-04  0  0.1123E-04  0  0.6920E-05  1 -0.2711E-04
   (  1, 29, 15)  (  1, 29, 15)  (  1, 29, 15)  (  1, 29, 15)  (  1, 29, 15)
  0 -0.2657E-04  0 -0.2110E-04  0 -0.1061E-04  0 -0.6554E-05
   (  1, 29, 15)  (  1, 29, 15)  (  1, 29, 15)  (  1, 29, 15)



 OUTPUT CONTROL FOR STRESS PERIOD    1   TIME STEP    1
    PRINT HEAD FOR ALL LAYERS
    PRINT BUDGET
    SAVE HEAD FOR ALL LAYERS
    SAVE BUDGET
 UBDSV2 SAVING "   CONSTANT HEAD" ON UNIT  53 AT TIME STEP  1, STRESS PERIOD   1
 UBDSV1 SAVING "FLOW RIGHT FACE " ON UNIT  53 AT TIME STEP  1, STRESS PERIOD   1
 UBDSV1 SAVING "FLOW FRONT FACE " ON UNIT  53 AT TIME STEP  1, STRESS PERIOD   1

         ****FAILED TO MEET SOLVER CONVERGENCE CRITERIA IN TIME STEP    1 OF STRESS PERIOD    1****
1
              HEAD IN LAYER   1 AT END OF TIME STEP   1 IN STRESS PERIOD    1
  ---------------------------------------------------------------------------

            1           2           3           4           5           6           7           8           9          10
           11          12          13          14          15          16          17          18          19          20
           21          22          23          24          25          26          27          28          29          30
 ........................................................................................................................
   1    194.9       194.6       194.2       193.9       193.6       193.3       192.9       192.6       192.2       191.9    
        191.6       191.2       190.9       190.6       190.2       188.8       186.3       183.7       181.1       178.5    
        175.8       173.0       170.2       167.4       164.5       161.6       158.5       155.5       152.3       149.1    
   2    194.9       194.6       194.2       193.9       193.6       193.3       192.9       192.6       192.2       191.9    
        191.6       191.2       190.9       190.6       190.2       188.8       186.3       183.7       181.1       178.5    
        175.8       173.0       170.2       167.4       164.5       161.6       158.5       155.5       152.3       149.1    
   3    194.9       194.6       194.2       193.9       193.6       193.3       192.9       192.6       192.2       191.9    
        191.6       191.2       190.9       190.6       190.2       188.8       186.3       183.7       181.1       178.5    
        175.8       173.0       170.2       167.4       164.5       161.6       158.5       155.5       152.3       149.1    
   4    194.9       194.6       194.2       193.9       193.6       193.3       192.9       192.6       192.2       191.9    
        191.6       191.2       190.9       190.6       190.2       188.8       186.3       183.7       181.1       178.5    
        175.8       173.0       170.2       167.4       164.5       161.6       158.5       155.5       152.3       149.1    
   5    194.9       194.6       194.2       193.9       193.6       193.2       192.9       192.6       192.2       191.9    
        191.6       191.2       190.9       190.6       190.2       188.8       186.3       183.7       181.1       178.5    
        175.8       173.0       170.2       167.4       164.5       161.6       158.5       155.5       152.3       149.1    
   6    194.9       194.6       194.2       193.9       193.6       193.2       192.9       192.6       192.2       191.9    
        191.6       191.2       190.9       190.5       190.2       188.8       186.3       183.7       181.1       178.5    
        175.8       173.0       170.2       167.4       164.5       161.6       158.5       155.5       152.3       149.1    
   7    194.9       194.6       194.2       193.9       193.6       193.2       192.9       192.6       192.2       191.9    
        191.6       191.2       190.9       190.5       190.2       188.8       186.3       183.7       181.1       178.5    
        175.8       173.0       170.2       167.4       164.5       161.6       158.5       155.5       152.3       149.1    
   8    194.9       194.6       194.2       193.9       193.6       193.2       192.9       192.6       192.2       191.9    
        191.6       191.2       190.9       190.5       190.2       188.8       186.3       183.7       181.1       178.5    
        175.8       173.0       170.2       167.4       164.5       161.6       158.5       155.5       152.3       149.1    
   9    194.9       194.6       194.2       193.9       193.6       193.2       192.9       192.6       192.2       191.9    
        191.6       191.2       190.9       190.5       190.2       188.8       186.3       183.7       181.1       178.4    
        175.8       173.0       170.2       167.4       164.5       161.6       158.5       155.5       152.3       149.1    
  10    194.9       194.6       194.2       193.9       193.6       193.2       192.9       192.6       192.2       191.9    
        191.6       191.2       190.9       190.5       190.2       188.8       186.2       183.7       181.1       178.4    
        175.8       173.0       170.2       167.4       164.5       161.6       158.5       155.5       152.3       149.1    
  11    194.9       194.6       194.2       193.9       193.6       193.2       192.9       192.6       192.2       191.9    
        191.6       191.2       190.9       190.5       190.2       188.8       186.2       183.7       181.1       178.4    
        175.8       173.0       170.2       167.4       164.5       161.6       158.5       155.5       152.3       149.1    
  12    194.9       194.6       194.2       193.9       193.6       193.2       192.9       192.6       192.2       191.9    
        191.6       191.2       190.9       190.5       190.2       188.8       186.2       183.7       181.1       178.4    
        175.8       173.0       170.2       167.4       164.5       161.6       158.5       155.5       152.3       149.1    
  13    194.9       194.6       194.2       193.9       193.6       193.2       192.9       192.6       192.2       191.9    
        191.6       191.2       190.9       190.5       190.2       188.8       186.2       183.7       181.1       178.4    
        175.8       173.0       170.2       167.4       164.5       161.6       158.5       155.5       152.3       149.1    
  14    194.9       194.6       194.2       193.9       193.6       193.2       192.9       192.6       192.2       191.9    
        191.6       191.2       190.9       190.5       190.2       188.8       186.2       183.7       181.1       178.4    
        175.7       173.0       170.2       167.4       164.5       161.6       158.5       155.5       152.3       149.1    
  15    194.9       194.6       194.2       193.9       193.6       193.2       192.9       192.6       192.2       191.9    
        191.6       191.2       190.9       190.5       190.2       188.8       186.2       183.7       181.1       178.4    
        175.7       173.0       170.2       167.4       164.5       161.6       158.5       155.5       152.3       149.1    
  16    194.9       194.6       194.2       193.9       193.6       193.2       192.9       192.6       192.2       191.9    
        191.6       191.2       190.9       190.5       190.2       188.8       186.2       183.7       181.1       178.4    
        175.7       173.0       170.2       167.4       164.5       161.6       158.5       155.5       152.3       149.1    
  17    194.9       194.6       194.2       193.9       193.6       193.2       192.9       192.6       192.2       191.9    
        191.6       191.2       190.9       190.5       190.2       188.8       186.2       183.7       181.1       178.4    
        175.7       173.0       170.2       167.4       164.5       161.5       158.5       155.5       152.3       149.1    
  18    194.9       194.6       194.2       193.9       193.6       193.2       192.9       192.6       192.2       191.9    
        191.6       191.2       190.9       190.5       190.2       188.8       186.2       183.7       181.1       178.4    
        175.7       173.0       170.2       167.4       164.5       161.5       158.5       155.5       152.3       149.1    
  19    194.9       194.6       194.2       193.9       193.6       193.2       192.9       192.6       192.2       191.9    
        191.6       191.2       190.9       190.5       190.2       188.8       186.2       183.7       181.1       178.4    
        175.7       173.0       170.2       167.4       164.5       161.5       158.5       155.5       152.3       149.1    
  20    194.9       194.6       194.2       193.9       193.6       193.2       192.9       192.6       192.2       191.9    
        191.6       191.2       190.9       190.5       190.2       188.8       186.2       183.7       181.1       178.4    
        175.7       173.0       170.2       167.4       164.5       161.5       158.5       155.5       152.3       149.1    
  21    194.9       194.6       194.2       193.9       193.6       193.2       192.9       192.6       192.2       191.9    
        191.6       191.2       190.9       190.5       190.2       188.8       186.2       183.7       181.1       178.4    
        175.7       173.0       170.2       167.4       164.5       161.5       158.5       155.5       152.3       149.1    
  22    194.9       194.6       194.2       193.9       193.6       193.2       192.9       192.6       192.2       191.9    
        191.6       191.2       190.9       190.5       190.2       188.8       186.2       183.7       181.1       178.4    
        175.7       173.0       170.2       167.4       164.5       161.5       158.5       155.5       152.3       149.1    
  23    194.9       194.6       194.2       193.9       193.6       193.2       192.9       192.6       192.2       191.9    
        191.6       191.2       190.9       190.5       190.2       188.8       186.2       183.7       181.1       178.4    
        175.7       173.0       170.2       167.4       164.5       161.5       158.5       155.5       152.3       149.1    
  24    194.9       194.6       194.2       193.9       193.6       193.2       192.9       192.6       192.2       191.9    
        191.6       191.2       190.9       190.5       190.2       188.8       186.2       183.7       181.1       178.4    
        175.7       173.0       170.2       167.4       164.5       161.5       158.5       155.5       152.3       149.1    
  25    194.9       194.6       194.2       193.9       193.6       193.2       192.9       192.6       192.2       191.9    
        191.6       191.2       190.9       190.5       190.2       188.8       186.2       183.7       181.1       178.4    
        175.7       173.0       170.2       167.4       164.5       161.5       158.5       155.5       152.3       149.1    
  26    194.9       194.6       194.2       193.9       193.6       193.2       192.9       192.6       192.2       191.9    
        191.6       191.2       190.9       190.5       190.2       188.8       186.2       183.7       181.1       178.4    
        175.7       173.0       170.2       167.4       164.5       161.5       158.5       155.5       152.3       149.1    
  27    194.9       194.6       194.2       193.9       193.6       193.2       192.9       192.6       192.2       191.9    
        191.6       191.2       190.9       190.5       190.2       188.8       186.2       183.7       181.1       178.4    
        175.7       173.0       170.2       167.4       164.5       161.5       158.5       155.5       152.3       149.1    
  28    194.9       194.6       194.2       193.9       193.6       193.2       192.9       192.6       192.2       191.9    
        191.6       191.2       190.9       190.5       190.2       188.8       186.2       183.7       181.1       178.4    
        175.7       173.0       170.2       167.4       164.5       161.5       158.5       155.5       152.3       149.1    
  29    194.9       194.6       194.2       193.9       193.6       193.2       192.9       192.6       192.2       191.9    
        191.6       191.2       190.9       190.5       190.2       188.8       186.2       183.7       181.1       178.4    
        175.7       173.0       170.2       167.4       164.5       161.5       158.5       155.5       152.3       149.1    
  30    194.9       194.6       194.2       193.9       193.6       193.2       192.9       192.6       192.2       191.9    
        191.6       191.2       190.9       190.5       190.2       188.8       186.2       183.7       181.1       178.4    
        175.7       173.0       170.2       167.4       164.5       161.5       158.5       155.5       152.3       149.1    

 HEAD WILL BE SAVED ON UNIT   51 AT END OF TIME STEP    1, STRESS PERIOD    1
1
  VOLUMETRIC BUDGET FOR ENTIRE MODEL AT END OF TIME STEP    1, STRESS PERIOD   1
  ------------------------------------------------------------------------------

     CUMULATIVE VOLUMES      L**3       RATES FOR THIS TIME STEP      L**3/T
     ------------------                 ------------------------

           IN:                                      IN:
           ---                                      ---
             STORAGE =           0.0000               STORAGE =           0.0000
       CONSTANT HEAD =       13925.9727         CONSTANT HEAD =       13925.9727
            RECHARGE =         624.0000              RECHARGE =         624.0000

            TOTAL IN =       14549.9727              TOTAL IN =       14549.9727

          OUT:                                     OUT:
          ----                                     ----
             STORAGE =           0.0000               STORAGE =           0.0000
       CONSTANT HEAD =       14549.9727         CONSTANT HEAD =       14549.9727
            RECHARGE =           0.0000              RECHARGE =           0.0000

           TOTAL OUT =       14549.9727             TOTAL OUT =       14549.9727

            IN - OUT =           0.0000              IN - OUT =           0.0000

 PERCENT DISCREPANCY =           0.00     PERCENT DISCREPANCY =           0.00






         TIME SUMMARY AT END OF TIME STEP    1 IN STRESS PERIOD    1
                    SECONDS     MINUTES      HOURS       DAYS        YEARS
                    -----------------------------------------------------------
   TIME STEP LENGTH  86400.      1440.0      24.000      1.0000     2.73785E-03
 STRESS PERIOD TIME  86400.      1440.0      24.000      1.0000     2.73785E-03
         TOTAL TIME  86400.      1440.0      24.000      1.0000     2.73785E-03
1
 FAILURE TO MEET SOLVER CONVERGENCE CRITERIA
 BUDGET PERCENT DISCREPANCY IS    0.0000
 CONTINUING EXECUTION

 Run end date and time (yyyy/mm/dd hh:mm:ss): 2026/02/10 20:24:30
 Elapsed run time:  0.023 Seconds

